/*---------------------------------------------------------------------------*\
| =========                 |                                                 |
| \\      /  F ield         | OpenFOAM: The Open Source CFD Toolbox           |
|  \\    /   O peration     | Version:  v1912                                 |
|   \\  /    A nd           | Website:  www.openfoam.com                      |
|    \\/     M anipulation  |                                                 |
\*---------------------------------------------------------------------------*/
Build  : _f3950763fe-20191219 OPENFOAM=1912
Arch   : "LSB;label=32;scalar=64"
Exec   : chtMultiRegionSimpleFoam
Date   : Jun 28 2020
Time   : 19:08:38
Host   : vipin-workstation
PID    : 2694
I/O    : uncollated
Case   : /home/vipin4948/Openfoam_anlaysis/sphere_in_air_extended
nProcs : 1
trapFpe: Floating point exception trapping enabled (FOAM_SIGFPE).
fileModificationChecking : Monitoring run-time modified files using timeStampMaster (fileModificationSkew 10)
allowSystemOperations : Allowing user-supplied system call operations

// * * * * * * * * * * * * * * * * * * * * * * * * * * * * * * * * * * * * * //
Create time

Create fluid mesh for region air for time = 0.8

Create solid mesh for region sphere for time = 0.8

*** Reading fluid mesh thermophysical properties for region air

    Adding to thermoFluid

Selecting thermodynamics package 
{
    type            heRhoThermo;
    mixture         pureMixture;
    transport       polynomial;
    thermo          hPolynomial;
    equationOfState icoPolynomial;
    specie          specie;
    energy          sensibleEnthalpy;
}

    Adding to rhoFluid

    Adding to UFluid

    Adding to phiFluid

    Adding to hRefFluid

    Adding to ghFluid

    Adding to ghfFluid

    Adding to turbulence

Selecting turbulence model type laminar
Selecting laminar stress model Stokes
Selecting radiationModel none
    Adding MRF

No MRF models present

    Adding fvOptions

*** Reading solid mesh thermophysical properties for region sphere

    Adding to thermos

Selecting thermodynamics package 
{
    type            heSolidThermo;
    mixture         pureMixture;
    transport       polynomial;
    thermo          hPolynomial;
    equationOfState rhoConst;
    specie          specie;
    energy          sensibleEnthalpy;
}

    Adding to radiations

Selecting radiationModel none
    Adding fvOptions

wallHeatFlux wallHeatFlux1:
    processing all wall patches

Selecting heat transfer coefficient model fixedReferenceTemperature
surfaceFieldValue avgSphereHeatTrfCoeff:
    operation     = areaAverage


Time = 0.801


Solving for fluid region air
DILUPBiCGStab:  Solving for Ux, Initial residual = 0.00654211, Final residual = 0.000115694, No Iterations 1
DILUPBiCGStab:  Solving for Uy, Initial residual = 0.00514423, Final residual = 9.44357e-05, No Iterations 1
DILUPBiCGStab:  Solving for Uz, Initial residual = 0.0072101, Final residual = 0.00012542, No Iterations 1
DILUPBiCGStab:  Solving for h, Initial residual = 0.000454924, Final residual = 7.92529e-06, No Iterations 1
Min/max T:300.006 499.754
GAMG:  Solving for p_rgh, Initial residual = 0.0128116, Final residual = 0.000112848, No Iterations 2
time step continuity errors : sum local = 2.40025e-07, global = 9.86123e-22, cumulative = 9.86123e-22
Min/max rho:1 1.15896

Solving for solid region sphere
DICPCG:  Solving for h, Initial residual = 0.0151616, Final residual = 0.00150004, No Iterations 1
Min/max T:499.655 499.759
ExecutionTime = 17.99 s  ClockTime = 19 s

Time = 0.802


Solving for fluid region air
DILUPBiCGStab:  Solving for Ux, Initial residual = 0.00896949, Final residual = 0.000167317, No Iterations 1
DILUPBiCGStab:  Solving for Uy, Initial residual = 0.00572809, Final residual = 0.000103632, No Iterations 1
DILUPBiCGStab:  Solving for Uz, Initial residual = 0.00992645, Final residual = 0.000181873, No Iterations 1
DILUPBiCGStab:  Solving for h, Initial residual = 0.000456133, Final residual = 7.97153e-06, No Iterations 1
Min/max T:300.006 499.753
GAMG:  Solving for p_rgh, Initial residual = 0.0305527, Final residual = 0.00024456, No Iterations 2
time step continuity errors : sum local = 5.21222e-07, global = -1.52556e-21, cumulative = -5.39433e-22
Min/max rho:1 1.15896

Solving for solid region sphere
DICPCG:  Solving for h, Initial residual = 0.00575474, Final residual = 5.35061e-05, No Iterations 2
Min/max T:499.656 499.759
ExecutionTime = 24.09 s  ClockTime = 25 s

Time = 0.803


Solving for fluid region air
DILUPBiCGStab:  Solving for Ux, Initial residual = 0.00815083, Final residual = 0.000141371, No Iterations 1
DILUPBiCGStab:  Solving for Uy, Initial residual = 0.00570173, Final residual = 0.000102945, No Iterations 1
DILUPBiCGStab:  Solving for Uz, Initial residual = 0.00877688, Final residual = 0.000150196, No Iterations 1
DILUPBiCGStab:  Solving for h, Initial residual = 0.000451257, Final residual = 7.86109e-06, No Iterations 1
Min/max T:300.006 499.753
GAMG:  Solving for p_rgh, Initial residual = 0.0413691, Final residual = 0.000319662, No Iterations 2
time step continuity errors : sum local = 6.83012e-07, global = -1.02176e-21, cumulative = -1.56119e-21
Min/max rho:1 1.15896

Solving for solid region sphere
DICPCG:  Solving for h, Initial residual = 0.00550652, Final residual = 3.34618e-05, No Iterations 2
Min/max T:499.655 499.758
ExecutionTime = 30.61 s  ClockTime = 31 s

Time = 0.804


Solving for fluid region air
DILUPBiCGStab:  Solving for Ux, Initial residual = 0.00823873, Final residual = 0.000144441, No Iterations 1
DILUPBiCGStab:  Solving for Uy, Initial residual = 0.00564669, Final residual = 0.000102125, No Iterations 1
DILUPBiCGStab:  Solving for Uz, Initial residual = 0.00892671, Final residual = 0.000154789, No Iterations 1
DILUPBiCGStab:  Solving for h, Initial residual = 0.000449103, Final residual = 7.81263e-06, No Iterations 1
Min/max T:300.006 499.753
GAMG:  Solving for p_rgh, Initial residual = 0.0433322, Final residual = 0.000110492, No Iterations 3
time step continuity errors : sum local = 2.37577e-07, global = 2.77091e-21, cumulative = 1.20972e-21
Min/max rho:1 1.15896

Solving for solid region sphere
DICPCG:  Solving for h, Initial residual = 0.00550921, Final residual = 2.97975e-05, No Iterations 2
Min/max T:499.655 499.758
ExecutionTime = 37.26 s  ClockTime = 38 s

Time = 0.805


Solving for fluid region air
DILUPBiCGStab:  Solving for Ux, Initial residual = 0.00775216, Final residual = 0.000135256, No Iterations 1
DILUPBiCGStab:  Solving for Uy, Initial residual = 0.00549511, Final residual = 9.97885e-05, No Iterations 1
DILUPBiCGStab:  Solving for Uz, Initial residual = 0.00841785, Final residual = 0.000145476, No Iterations 1
DILUPBiCGStab:  Solving for h, Initial residual = 0.000447509, Final residual = 7.77723e-06, No Iterations 1
Min/max T:300.006 499.753
GAMG:  Solving for p_rgh, Initial residual = 0.0417879, Final residual = 0.000303729, No Iterations 2
time step continuity errors : sum local = 6.53934e-07, global = 1.65521e-21, cumulative = 2.86493e-21
Min/max rho:1 1.15896

Solving for solid region sphere
DICPCG:  Solving for h, Initial residual = 0.00551195, Final residual = 2.91679e-05, No Iterations 2
Min/max T:499.655 499.758
ExecutionTime = 43.52 s  ClockTime = 44 s

Time = 0.806


Solving for fluid region air
DILUPBiCGStab:  Solving for Ux, Initial residual = 0.00744529, Final residual = 0.00012899, No Iterations 1
DILUPBiCGStab:  Solving for Uy, Initial residual = 0.0053841, Final residual = 9.79763e-05, No Iterations 1
DILUPBiCGStab:  Solving for Uz, Initial residual = 0.00801497, Final residual = 0.000137661, No Iterations 1
DILUPBiCGStab:  Solving for h, Initial residual = 0.000446128, Final residual = 7.74772e-06, No Iterations 1
Min/max T:300.007 499.752
GAMG:  Solving for p_rgh, Initial residual = 0.0405686, Final residual = 0.000290831, No Iterations 2
time step continuity errors : sum local = 6.28593e-07, global = 1.23651e-21, cumulative = 4.10144e-21
Min/max rho:1 1.15896

Solving for solid region sphere
DICPCG:  Solving for h, Initial residual = 0.00551473, Final residual = 2.90696e-05, No Iterations 2
Min/max T:499.655 499.758
ExecutionTime = 49.98 s  ClockTime = 51 s

Time = 0.807


Solving for fluid region air
DILUPBiCGStab:  Solving for Ux, Initial residual = 0.00746912, Final residual = 0.000129053, No Iterations 1
DILUPBiCGStab:  Solving for Uy, Initial residual = 0.00531976, Final residual = 9.66237e-05, No Iterations 1
DILUPBiCGStab:  Solving for Uz, Initial residual = 0.00790889, Final residual = 0.000135719, No Iterations 1
DILUPBiCGStab:  Solving for h, Initial residual = 0.000444357, Final residual = 7.71458e-06, No Iterations 1
Min/max T:300.007 499.752
GAMG:  Solving for p_rgh, Initial residual = 0.0403143, Final residual = 0.000333747, No Iterations 2
time step continuity errors : sum local = 7.23177e-07, global = 2.90871e-22, cumulative = 4.39231e-21
Min/max rho:1 1.15896

Solving for solid region sphere
DICPCG:  Solving for h, Initial residual = 0.00551752, Final residual = 2.9063e-05, No Iterations 2
Min/max T:499.655 499.757
ExecutionTime = 56.43 s  ClockTime = 57 s

Time = 0.808


Solving for fluid region air
DILUPBiCGStab:  Solving for Ux, Initial residual = 0.00751212, Final residual = 0.000129359, No Iterations 1
DILUPBiCGStab:  Solving for Uy, Initial residual = 0.00531272, Final residual = 9.61433e-05, No Iterations 1
DILUPBiCGStab:  Solving for Uz, Initial residual = 0.00794084, Final residual = 0.00013585, No Iterations 1
DILUPBiCGStab:  Solving for h, Initial residual = 0.000442455, Final residual = 7.67818e-06, No Iterations 1
Min/max T:300.007 499.752
GAMG:  Solving for p_rgh, Initial residual = 0.0404767, Final residual = 0.000377746, No Iterations 2
time step continuity errors : sum local = 8.21846e-07, global = 1.23893e-21, cumulative = 5.63124e-21
Min/max rho:1 1.15896

Solving for solid region sphere
DICPCG:  Solving for h, Initial residual = 0.0055203, Final residual = 2.90744e-05, No Iterations 2
Min/max T:499.655 499.757
ExecutionTime = 62.85 s  ClockTime = 64 s

Time = 0.809


Solving for fluid region air
DILUPBiCGStab:  Solving for Ux, Initial residual = 0.00750474, Final residual = 0.000129205, No Iterations 1
DILUPBiCGStab:  Solving for Uy, Initial residual = 0.00529667, Final residual = 9.56546e-05, No Iterations 1
DILUPBiCGStab:  Solving for Uz, Initial residual = 0.00791845, Final residual = 0.000135201, No Iterations 1
DILUPBiCGStab:  Solving for h, Initial residual = 0.000440522, Final residual = 7.64375e-06, No Iterations 1
Min/max T:300.007 499.752
GAMG:  Solving for p_rgh, Initial residual = 0.0411607, Final residual = 0.000369277, No Iterations 2
time step continuity errors : sum local = 8.05868e-07, global = 5.74485e-24, cumulative = 5.63699e-21
Min/max rho:1 1.15896

Solving for solid region sphere
DICPCG:  Solving for h, Initial residual = 0.00552308, Final residual = 2.90904e-05, No Iterations 2
Min/max T:499.654 499.757
ExecutionTime = 68.96 s  ClockTime = 70 s

Time = 0.81


Solving for fluid region air
DILUPBiCGStab:  Solving for Ux, Initial residual = 0.00746039, Final residual = 0.000128408, No Iterations 1
DILUPBiCGStab:  Solving for Uy, Initial residual = 0.00525952, Final residual = 9.4851e-05, No Iterations 1
DILUPBiCGStab:  Solving for Uz, Initial residual = 0.00784876, Final residual = 0.000133906, No Iterations 1
DILUPBiCGStab:  Solving for h, Initial residual = 0.000438686, Final residual = 7.60998e-06, No Iterations 1
Min/max T:300.007 499.751
GAMG:  Solving for p_rgh, Initial residual = 0.0419117, Final residual = 0.000353845, No Iterations 2
time step continuity errors : sum local = 7.72116e-07, global = -5.4934e-22, cumulative = 5.08765e-21
Min/max rho:1 1.15896

Solving for solid region sphere
DICPCG:  Solving for h, Initial residual = 0.00552587, Final residual = 2.91072e-05, No Iterations 2
Min/max T:499.654 499.756
ExecutionTime = 75.29 s  ClockTime = 76 s

Time = 0.811


Solving for fluid region air
DILUPBiCGStab:  Solving for Ux, Initial residual = 0.00742457, Final residual = 0.000127702, No Iterations 1
DILUPBiCGStab:  Solving for Uy, Initial residual = 0.00522841, Final residual = 9.40583e-05, No Iterations 1
DILUPBiCGStab:  Solving for Uz, Initial residual = 0.00779425, Final residual = 0.000132681, No Iterations 1
DILUPBiCGStab:  Solving for h, Initial residual = 0.000436913, Final residual = 7.57989e-06, No Iterations 1
Min/max T:300.007 499.751
GAMG:  Solving for p_rgh, Initial residual = 0.0423825, Final residual = 0.00035259, No Iterations 2
time step continuity errors : sum local = 7.69021e-07, global = -8.15261e-22, cumulative = 4.27239e-21
Min/max rho:1 1.15896

Solving for solid region sphere
DICPCG:  Solving for h, Initial residual = 0.00552868, Final residual = 2.91238e-05, No Iterations 2
Min/max T:499.654 499.756
ExecutionTime = 81.28 s  ClockTime = 83 s

Time = 0.812


Solving for fluid region air
DILUPBiCGStab:  Solving for Ux, Initial residual = 0.00742585, Final residual = 0.000127458, No Iterations 1
DILUPBiCGStab:  Solving for Uy, Initial residual = 0.00521969, Final residual = 9.35473e-05, No Iterations 1
DILUPBiCGStab:  Solving for Uz, Initial residual = 0.00777741, Final residual = 0.000132282, No Iterations 1
DILUPBiCGStab:  Solving for h, Initial residual = 0.000435074, Final residual = 7.55175e-06, No Iterations 1
Min/max T:300.007 499.751
GAMG:  Solving for p_rgh, Initial residual = 0.0427658, Final residual = 0.00035911, No Iterations 2
time step continuity errors : sum local = 7.81964e-07, global = -1.1361e-21, cumulative = 3.13629e-21
Min/max rho:1 1.15896

Solving for solid region sphere
DICPCG:  Solving for h, Initial residual = 0.00553149, Final residual = 2.914e-05, No Iterations 2
Min/max T:499.654 499.756
ExecutionTime = 87.04 s  ClockTime = 89 s

Time = 0.813


Solving for fluid region air
DILUPBiCGStab:  Solving for Ux, Initial residual = 0.00742647, Final residual = 0.000127301, No Iterations 1
DILUPBiCGStab:  Solving for Uy, Initial residual = 0.00521217, Final residual = 9.32278e-05, No Iterations 1
DILUPBiCGStab:  Solving for Uz, Initial residual = 0.00775753, Final residual = 0.000131739, No Iterations 1
DILUPBiCGStab:  Solving for h, Initial residual = 0.000433263, Final residual = 7.52606e-06, No Iterations 1
Min/max T:300.007 499.75
GAMG:  Solving for p_rgh, Initial residual = 0.042963, Final residual = 0.000359614, No Iterations 2
time step continuity errors : sum local = 7.82224e-07, global = 1.44259e-21, cumulative = 4.57887e-21
Min/max rho:1 1.15896

Solving for solid region sphere
DICPCG:  Solving for h, Initial residual = 0.00553431, Final residual = 2.91558e-05, No Iterations 2
Min/max T:499.654 499.756
ExecutionTime = 93.09 s  ClockTime = 95 s

Time = 0.814


Solving for fluid region air
DILUPBiCGStab:  Solving for Ux, Initial residual = 0.00741723, Final residual = 0.000127004, No Iterations 1
DILUPBiCGStab:  Solving for Uy, Initial residual = 0.00519898, Final residual = 9.26517e-05, No Iterations 1
DILUPBiCGStab:  Solving for Uz, Initial residual = 0.00772393, Final residual = 0.000130937, No Iterations 1
DILUPBiCGStab:  Solving for h, Initial residual = 0.000431409, Final residual = 7.49707e-06, No Iterations 1
Min/max T:300.007 499.75
GAMG:  Solving for p_rgh, Initial residual = 0.0429939, Final residual = 0.000352806, No Iterations 2
time step continuity errors : sum local = 7.6685e-07, global = 1.27284e-21, cumulative = 5.85171e-21
Min/max rho:1 1.15896

Solving for solid region sphere
DICPCG:  Solving for h, Initial residual = 0.00553715, Final residual = 2.91713e-05, No Iterations 2
Min/max T:499.653 499.755
ExecutionTime = 99.24 s  ClockTime = 101 s

Time = 0.815


Solving for fluid region air
DILUPBiCGStab:  Solving for Ux, Initial residual = 0.0074171, Final residual = 0.000126831, No Iterations 1
DILUPBiCGStab:  Solving for Uy, Initial residual = 0.00518483, Final residual = 9.19834e-05, No Iterations 1
DILUPBiCGStab:  Solving for Uz, Initial residual = 0.00769371, Final residual = 0.000130311, No Iterations 1
DILUPBiCGStab:  Solving for h, Initial residual = 0.000429582, Final residual = 7.46766e-06, No Iterations 1
Min/max T:300.007 499.75
GAMG:  Solving for p_rgh, Initial residual = 0.0431208, Final residual = 0.000344113, No Iterations 2
time step continuity errors : sum local = 7.47366e-07, global = 1.10886e-21, cumulative = 6.96057e-21
Min/max rho:1 1.15896

Solving for solid region sphere
DICPCG:  Solving for h, Initial residual = 0.00553999, Final residual = 2.91866e-05, No Iterations 2
Min/max T:499.653 499.755
ExecutionTime = 105.51 s  ClockTime = 107 s

Time = 0.816


Solving for fluid region air
DILUPBiCGStab:  Solving for Ux, Initial residual = 0.00740969, Final residual = 0.0001266, No Iterations 1
DILUPBiCGStab:  Solving for Uy, Initial residual = 0.00517248, Final residual = 9.13229e-05, No Iterations 1
DILUPBiCGStab:  Solving for Uz, Initial residual = 0.00768178, Final residual = 0.000129887, No Iterations 1
DILUPBiCGStab:  Solving for h, Initial residual = 0.000427666, Final residual = 7.43864e-06, No Iterations 1
Min/max T:300.007 499.75
GAMG:  Solving for p_rgh, Initial residual = 0.0432706, Final residual = 0.000338945, No Iterations 2
time step continuity errors : sum local = 7.35832e-07, global = 4.43949e-22, cumulative = 7.40451e-21
Min/max rho:1 1.15896

Solving for solid region sphere
DICPCG:  Solving for h, Initial residual = 0.00554284, Final residual = 2.92017e-05, No Iterations 2
Min/max T:499.653 499.755
ExecutionTime = 111.72 s  ClockTime = 114 s

Time = 0.817


Solving for fluid region air
DILUPBiCGStab:  Solving for Ux, Initial residual = 0.00738453, Final residual = 0.000126014, No Iterations 1
DILUPBiCGStab:  Solving for Uy, Initial residual = 0.0051581, Final residual = 9.0638e-05, No Iterations 1
DILUPBiCGStab:  Solving for Uz, Initial residual = 0.00766614, Final residual = 0.000129428, No Iterations 1
DILUPBiCGStab:  Solving for h, Initial residual = 0.000425777, Final residual = 7.41042e-06, No Iterations 1
Min/max T:300.007 499.749
GAMG:  Solving for p_rgh, Initial residual = 0.0431882, Final residual = 0.00033737, No Iterations 2
time step continuity errors : sum local = 7.3247e-07, global = 7.07892e-22, cumulative = 8.11241e-21
Min/max rho:1 1.15896

Solving for solid region sphere
DICPCG:  Solving for h, Initial residual = 0.0055457, Final residual = 2.92166e-05, No Iterations 2
Min/max T:499.653 499.755
ExecutionTime = 117.46 s  ClockTime = 120 s

Time = 0.818


Solving for fluid region air
DILUPBiCGStab:  Solving for Ux, Initial residual = 0.00736781, Final residual = 0.000125593, No Iterations 1
DILUPBiCGStab:  Solving for Uy, Initial residual = 0.00514448, Final residual = 9.00005e-05, No Iterations 1
DILUPBiCGStab:  Solving for Uz, Initial residual = 0.00765002, Final residual = 0.000128969, No Iterations 1
DILUPBiCGStab:  Solving for h, Initial residual = 0.000424015, Final residual = 7.38607e-06, No Iterations 1
Min/max T:300.007 499.749
GAMG:  Solving for p_rgh, Initial residual = 0.0431865, Final residual = 0.000338649, No Iterations 2
time step continuity errors : sum local = 7.35036e-07, global = -4.0574e-23, cumulative = 8.07183e-21
Min/max rho:1 1.15896

Solving for solid region sphere
DICPCG:  Solving for h, Initial residual = 0.00554857, Final residual = 2.92315e-05, No Iterations 2
Min/max T:499.653 499.754
ExecutionTime = 123.23 s  ClockTime = 126 s

Time = 0.819


Solving for fluid region air
DILUPBiCGStab:  Solving for Ux, Initial residual = 0.00734694, Final residual = 0.000125109, No Iterations 1
DILUPBiCGStab:  Solving for Uy, Initial residual = 0.00512973, Final residual = 8.93831e-05, No Iterations 1
DILUPBiCGStab:  Solving for Uz, Initial residual = 0.00763294, Final residual = 0.000128403, No Iterations 1
DILUPBiCGStab:  Solving for h, Initial residual = 0.00042235, Final residual = 7.36416e-06, No Iterations 1
Min/max T:300.007 499.749
GAMG:  Solving for p_rgh, Initial residual = 0.0433653, Final residual = 0.000340088, No Iterations 2
time step continuity errors : sum local = 7.37951e-07, global = 2.00135e-21, cumulative = 1.00732e-20
Min/max rho:1 1.15896

Solving for solid region sphere
DICPCG:  Solving for h, Initial residual = 0.00555145, Final residual = 2.92463e-05, No Iterations 2
Min/max T:499.653 499.754
ExecutionTime = 129.9 s  ClockTime = 132 s

Time = 0.82


Solving for fluid region air
DILUPBiCGStab:  Solving for Ux, Initial residual = 0.00733123, Final residual = 0.000124674, No Iterations 1
DILUPBiCGStab:  Solving for Uy, Initial residual = 0.00511822, Final residual = 8.88187e-05, No Iterations 1
DILUPBiCGStab:  Solving for Uz, Initial residual = 0.00762443, Final residual = 0.000127863, No Iterations 1
DILUPBiCGStab:  Solving for h, Initial residual = 0.000420752, Final residual = 7.3422e-06, No Iterations 1
Min/max T:300.007 499.748
GAMG:  Solving for p_rgh, Initial residual = 0.0436803, Final residual = 0.000339896, No Iterations 2
time step continuity errors : sum local = 7.37437e-07, global = -3.02538e-22, cumulative = 9.77065e-21
Min/max rho:1 1.15896

Solving for solid region sphere
DICPCG:  Solving for h, Initial residual = 0.00555433, Final residual = 2.9261e-05, No Iterations 2
Min/max T:499.652 499.754
ExecutionTime = 136.27 s  ClockTime = 139 s

Time = 0.821


Solving for fluid region air
DILUPBiCGStab:  Solving for Ux, Initial residual = 0.00731259, Final residual = 0.000124298, No Iterations 1
DILUPBiCGStab:  Solving for Uy, Initial residual = 0.00510438, Final residual = 8.82779e-05, No Iterations 1
DILUPBiCGStab:  Solving for Uz, Initial residual = 0.00761128, Final residual = 0.000127382, No Iterations 1
DILUPBiCGStab:  Solving for h, Initial residual = 0.000419278, Final residual = 7.32075e-06, No Iterations 1
Min/max T:300.007 499.748
GAMG:  Solving for p_rgh, Initial residual = 0.0440441, Final residual = 0.000336172, No Iterations 2
time step continuity errors : sum local = 7.29232e-07, global = -1.94426e-22, cumulative = 9.57622e-21
Min/max rho:1 1.15896

Solving for solid region sphere
DICPCG:  Solving for h, Initial residual = 0.00555722, Final residual = 2.92757e-05, No Iterations 2
Min/max T:499.652 499.753
ExecutionTime = 142.91 s  ClockTime = 146 s

Time = 0.822


Solving for fluid region air
DILUPBiCGStab:  Solving for Ux, Initial residual = 0.00728538, Final residual = 0.000123832, No Iterations 1
DILUPBiCGStab:  Solving for Uy, Initial residual = 0.00508943, Final residual = 8.78035e-05, No Iterations 1
DILUPBiCGStab:  Solving for Uz, Initial residual = 0.00759557, Final residual = 0.000126934, No Iterations 1
DILUPBiCGStab:  Solving for h, Initial residual = 0.000417895, Final residual = 7.30107e-06, No Iterations 1
Min/max T:300.007 499.748
GAMG:  Solving for p_rgh, Initial residual = 0.0440896, Final residual = 0.000330736, No Iterations 2
time step continuity errors : sum local = 7.1779e-07, global = 3.0588e-21, cumulative = 1.2635e-20
Min/max rho:1 1.15896

Solving for solid region sphere
DICPCG:  Solving for h, Initial residual = 0.00556012, Final residual = 2.92905e-05, No Iterations 2
Min/max T:499.652 499.753
ExecutionTime = 149.37 s  ClockTime = 153 s

Time = 0.823


Solving for fluid region air
DILUPBiCGStab:  Solving for Ux, Initial residual = 0.00725436, Final residual = 0.000123288, No Iterations 1
DILUPBiCGStab:  Solving for Uy, Initial residual = 0.00507663, Final residual = 8.73584e-05, No Iterations 1
DILUPBiCGStab:  Solving for Uz, Initial residual = 0.00757488, Final residual = 0.000126401, No Iterations 1
DILUPBiCGStab:  Solving for h, Initial residual = 0.00041671, Final residual = 7.28322e-06, No Iterations 1
Min/max T:300.007 499.748
GAMG:  Solving for p_rgh, Initial residual = 0.0440091, Final residual = 0.000325954, No Iterations 2
time step continuity errors : sum local = 7.07871e-07, global = 2.01076e-22, cumulative = 1.28361e-20
Min/max rho:1 1.15896

Solving for solid region sphere
DICPCG:  Solving for h, Initial residual = 0.00556302, Final residual = 2.93052e-05, No Iterations 2
Min/max T:499.652 499.753
ExecutionTime = 156.18 s  ClockTime = 160 s

Time = 0.824


Solving for fluid region air
DILUPBiCGStab:  Solving for Ux, Initial residual = 0.00722121, Final residual = 0.000122724, No Iterations 1
DILUPBiCGStab:  Solving for Uy, Initial residual = 0.00506186, Final residual = 8.69189e-05, No Iterations 1
DILUPBiCGStab:  Solving for Uz, Initial residual = 0.00755259, Final residual = 0.000125816, No Iterations 1
DILUPBiCGStab:  Solving for h, Initial residual = 0.000415715, Final residual = 7.26799e-06, No Iterations 1
Min/max T:300.007 499.747
GAMG:  Solving for p_rgh, Initial residual = 0.04378, Final residual = 0.000321494, No Iterations 2
time step continuity errors : sum local = 6.99218e-07, global = 2.74512e-22, cumulative = 1.31106e-20
Min/max rho:1 1.15896

Solving for solid region sphere
DICPCG:  Solving for h, Initial residual = 0.00556593, Final residual = 2.93199e-05, No Iterations 2
Min/max T:499.652 499.753
ExecutionTime = 162.87 s  ClockTime = 167 s

Time = 0.825


Solving for fluid region air
DILUPBiCGStab:  Solving for Ux, Initial residual = 0.00717711, Final residual = 0.000122001, No Iterations 1
DILUPBiCGStab:  Solving for Uy, Initial residual = 0.00504476, Final residual = 8.65076e-05, No Iterations 1
DILUPBiCGStab:  Solving for Uz, Initial residual = 0.00752697, Final residual = 0.000125324, No Iterations 1
DILUPBiCGStab:  Solving for h, Initial residual = 0.000414896, Final residual = 7.25622e-06, No Iterations 1
Min/max T:300.007 499.747
GAMG:  Solving for p_rgh, Initial residual = 0.0432357, Final residual = 0.00031709, No Iterations 2
time step continuity errors : sum local = 6.90924e-07, global = 6.31423e-22, cumulative = 1.3742e-20
Min/max rho:1 1.15896

Solving for solid region sphere
DICPCG:  Solving for h, Initial residual = 0.00556884, Final residual = 2.93346e-05, No Iterations 2
Min/max T:499.652 499.752
ExecutionTime = 170.31 s  ClockTime = 175 s

Time = 0.826


Solving for fluid region air
DILUPBiCGStab:  Solving for Ux, Initial residual = 0.00714124, Final residual = 0.000121412, No Iterations 1
DILUPBiCGStab:  Solving for Uy, Initial residual = 0.00502981, Final residual = 8.61418e-05, No Iterations 1
DILUPBiCGStab:  Solving for Uz, Initial residual = 0.00750258, Final residual = 0.000124824, No Iterations 1
DILUPBiCGStab:  Solving for h, Initial residual = 0.000414304, Final residual = 7.24755e-06, No Iterations 1
Min/max T:300.007 499.747
GAMG:  Solving for p_rgh, Initial residual = 0.0427631, Final residual = 0.000315376, No Iterations 2
time step continuity errors : sum local = 6.88763e-07, global = 1.84642e-22, cumulative = 1.39267e-20
Min/max rho:1 1.15896

Solving for solid region sphere
DICPCG:  Solving for h, Initial residual = 0.00557176, Final residual = 2.93494e-05, No Iterations 2
Min/max T:499.651 499.752
ExecutionTime = 175.92 s  ClockTime = 181 s

Time = 0.827


Solving for fluid region air
DILUPBiCGStab:  Solving for Ux, Initial residual = 0.00710997, Final residual = 0.00012088, No Iterations 1
DILUPBiCGStab:  Solving for Uy, Initial residual = 0.0050161, Final residual = 8.57751e-05, No Iterations 1
DILUPBiCGStab:  Solving for Uz, Initial residual = 0.00748033, Final residual = 0.000124242, No Iterations 1
DILUPBiCGStab:  Solving for h, Initial residual = 0.00041394, Final residual = 7.23852e-06, No Iterations 1
Min/max T:300.007 499.746
GAMG:  Solving for p_rgh, Initial residual = 0.0422513, Final residual = 0.000317968, No Iterations 2
time step continuity errors : sum local = 6.95867e-07, global = 4.39429e-22, cumulative = 1.43661e-20
Min/max rho:1 1.15896

Solving for solid region sphere
DICPCG:  Solving for h, Initial residual = 0.00557468, Final residual = 2.93642e-05, No Iterations 2
Min/max T:499.651 499.752
ExecutionTime = 181.4 s  ClockTime = 187 s

Time = 0.828


Solving for fluid region air
DILUPBiCGStab:  Solving for Ux, Initial residual = 0.00707694, Final residual = 0.000120335, No Iterations 1
DILUPBiCGStab:  Solving for Uy, Initial residual = 0.00500227, Final residual = 8.54419e-05, No Iterations 1
DILUPBiCGStab:  Solving for Uz, Initial residual = 0.00745745, Final residual = 0.000123772, No Iterations 1
DILUPBiCGStab:  Solving for h, Initial residual = 0.000413773, Final residual = 7.23267e-06, No Iterations 1
Min/max T:300.007 499.746
GAMG:  Solving for p_rgh, Initial residual = 0.0417852, Final residual = 0.000322848, No Iterations 2
time step continuity errors : sum local = 7.07746e-07, global = 1.30512e-21, cumulative = 1.56712e-20
Min/max rho:1 1.15896

Solving for solid region sphere
DICPCG:  Solving for h, Initial residual = 0.0055776, Final residual = 2.9379e-05, No Iterations 2
Min/max T:499.651 499.752
ExecutionTime = 187.16 s  ClockTime = 193 s

Time = 0.829


Solving for fluid region air
DILUPBiCGStab:  Solving for Ux, Initial residual = 0.00704675, Final residual = 0.000119825, No Iterations 1
DILUPBiCGStab:  Solving for Uy, Initial residual = 0.00498898, Final residual = 8.51469e-05, No Iterations 1
DILUPBiCGStab:  Solving for Uz, Initial residual = 0.00743519, Final residual = 0.000123269, No Iterations 1
DILUPBiCGStab:  Solving for h, Initial residual = 0.000413739, Final residual = 7.22775e-06, No Iterations 1
Min/max T:300.007 499.746
GAMG:  Solving for p_rgh, Initial residual = 0.0414638, Final residual = 0.000329208, No Iterations 2
time step continuity errors : sum local = 7.22686e-07, global = 2.24394e-21, cumulative = 1.79152e-20
Min/max rho:1 1.15896

Solving for solid region sphere
DICPCG:  Solving for h, Initial residual = 0.00558053, Final residual = 2.93938e-05, No Iterations 2
Min/max T:499.651 499.751
ExecutionTime = 193.37 s  ClockTime = 199 s

Time = 0.83


Solving for fluid region air
DILUPBiCGStab:  Solving for Ux, Initial residual = 0.00701957, Final residual = 0.000119272, No Iterations 1
DILUPBiCGStab:  Solving for Uy, Initial residual = 0.00497472, Final residual = 8.48758e-05, No Iterations 1
DILUPBiCGStab:  Solving for Uz, Initial residual = 0.00741404, Final residual = 0.00012276, No Iterations 1
DILUPBiCGStab:  Solving for h, Initial residual = 0.000413775, Final residual = 7.22239e-06, No Iterations 1
Min/max T:300.007 499.746
GAMG:  Solving for p_rgh, Initial residual = 0.0411211, Final residual = 0.000334736, No Iterations 2
time step continuity errors : sum local = 7.34974e-07, global = 1.66767e-21, cumulative = 1.95828e-20
Min/max rho:1 1.15896

Solving for solid region sphere
DICPCG:  Solving for h, Initial residual = 0.00558347, Final residual = 2.94087e-05, No Iterations 2
Min/max T:499.651 499.751
ExecutionTime = 199.85 s  ClockTime = 205 s

Time = 0.831


Solving for fluid region air
DILUPBiCGStab:  Solving for Ux, Initial residual = 0.00699164, Final residual = 0.000118696, No Iterations 1
DILUPBiCGStab:  Solving for Uy, Initial residual = 0.00495994, Final residual = 8.46213e-05, No Iterations 1
DILUPBiCGStab:  Solving for Uz, Initial residual = 0.00738666, Final residual = 0.000122295, No Iterations 1
DILUPBiCGStab:  Solving for h, Initial residual = 0.000413894, Final residual = 7.21645e-06, No Iterations 1
Min/max T:300.007 499.745
GAMG:  Solving for p_rgh, Initial residual = 0.0406495, Final residual = 0.000339262, No Iterations 2
time step continuity errors : sum local = 7.44252e-07, global = -9.85649e-22, cumulative = 1.85972e-20
Min/max rho:1 1.15896

Solving for solid region sphere
DICPCG:  Solving for h, Initial residual = 0.0055864, Final residual = 2.94235e-05, No Iterations 2
Min/max T:499.65 499.751
ExecutionTime = 205.84 s  ClockTime = 211 s

Time = 0.832


Solving for fluid region air
DILUPBiCGStab:  Solving for Ux, Initial residual = 0.00696587, Final residual = 0.000118102, No Iterations 1
DILUPBiCGStab:  Solving for Uy, Initial residual = 0.00494588, Final residual = 8.44192e-05, No Iterations 1
DILUPBiCGStab:  Solving for Uz, Initial residual = 0.00735556, Final residual = 0.000121801, No Iterations 1
DILUPBiCGStab:  Solving for h, Initial residual = 0.000414062, Final residual = 7.21281e-06, No Iterations 1
Min/max T:300.007 499.745
GAMG:  Solving for p_rgh, Initial residual = 0.0400202, Final residual = 0.000342261, No Iterations 2
time step continuity errors : sum local = 7.49824e-07, global = 1.03477e-21, cumulative = 1.9632e-20
Min/max rho:1 1.15895

Solving for solid region sphere
DICPCG:  Solving for h, Initial residual = 0.00558934, Final residual = 2.94384e-05, No Iterations 2
Min/max T:499.65 499.751
ExecutionTime = 212.21 s  ClockTime = 218 s

Time = 0.833


Solving for fluid region air
DILUPBiCGStab:  Solving for Ux, Initial residual = 0.00694416, Final residual = 0.000117592, No Iterations 1
DILUPBiCGStab:  Solving for Uy, Initial residual = 0.00493413, Final residual = 8.42622e-05, No Iterations 1
DILUPBiCGStab:  Solving for Uz, Initial residual = 0.00732874, Final residual = 0.000121284, No Iterations 1
DILUPBiCGStab:  Solving for h, Initial residual = 0.000414218, Final residual = 7.2108e-06, No Iterations 1
Min/max T:300.007 499.745
GAMG:  Solving for p_rgh, Initial residual = 0.0394714, Final residual = 0.000344817, No Iterations 2
time step continuity errors : sum local = 7.5406e-07, global = 2.42237e-21, cumulative = 2.20543e-20
Min/max rho:1 1.15895

Solving for solid region sphere
DICPCG:  Solving for h, Initial residual = 0.00559228, Final residual = 2.94534e-05, No Iterations 2
Min/max T:499.65 499.75
ExecutionTime = 218.1 s  ClockTime = 224 s

Time = 0.834


Solving for fluid region air
DILUPBiCGStab:  Solving for Ux, Initial residual = 0.00692804, Final residual = 0.000117281, No Iterations 1
DILUPBiCGStab:  Solving for Uy, Initial residual = 0.00492352, Final residual = 8.40991e-05, No Iterations 1
DILUPBiCGStab:  Solving for Uz, Initial residual = 0.00730144, Final residual = 0.000120779, No Iterations 1
DILUPBiCGStab:  Solving for h, Initial residual = 0.000414294, Final residual = 7.21012e-06, No Iterations 1
Min/max T:300.007 499.745
GAMG:  Solving for p_rgh, Initial residual = 0.0391812, Final residual = 0.000347109, No Iterations 2
time step continuity errors : sum local = 7.57082e-07, global = -2.50844e-22, cumulative = 2.18035e-20
Min/max rho:1 1.15895

Solving for solid region sphere
DICPCG:  Solving for h, Initial residual = 0.00559522, Final residual = 2.94683e-05, No Iterations 2
Min/max T:499.65 499.75
ExecutionTime = 221.26 s  ClockTime = 227 s

Time = 0.835


Solving for fluid region air
DILUPBiCGStab:  Solving for Ux, Initial residual = 0.00691117, Final residual = 0.000116939, No Iterations 1
DILUPBiCGStab:  Solving for Uy, Initial residual = 0.00491334, Final residual = 8.39358e-05, No Iterations 1
DILUPBiCGStab:  Solving for Uz, Initial residual = 0.00727222, Final residual = 0.000120259, No Iterations 1
DILUPBiCGStab:  Solving for h, Initial residual = 0.000414371, Final residual = 7.20935e-06, No Iterations 1
Min/max T:300.007 499.744
GAMG:  Solving for p_rgh, Initial residual = 0.0390187, Final residual = 0.000348388, No Iterations 2
time step continuity errors : sum local = 7.57507e-07, global = 3.28902e-22, cumulative = 2.21324e-20
Min/max rho:1 1.15895

Solving for solid region sphere
DICPCG:  Solving for h, Initial residual = 0.00559816, Final residual = 2.94833e-05, No Iterations 2
Min/max T:499.65 499.75
ExecutionTime = 224.24 s  ClockTime = 230 s

Time = 0.836


Solving for fluid region air
DILUPBiCGStab:  Solving for Ux, Initial residual = 0.0069016, Final residual = 0.000116707, No Iterations 1
DILUPBiCGStab:  Solving for Uy, Initial residual = 0.00490332, Final residual = 8.38575e-05, No Iterations 1
DILUPBiCGStab:  Solving for Uz, Initial residual = 0.00725113, Final residual = 0.000119811, No Iterations 1
DILUPBiCGStab:  Solving for h, Initial residual = 0.000414413, Final residual = 7.20931e-06, No Iterations 1
Min/max T:300.007 499.744
GAMG:  Solving for p_rgh, Initial residual = 0.0389602, Final residual = 0.000349517, No Iterations 2
time step continuity errors : sum local = 7.57737e-07, global = 8.2152e-23, cumulative = 2.22145e-20
Min/max rho:1 1.15895

Solving for solid region sphere
DICPCG:  Solving for h, Initial residual = 0.0056011, Final residual = 2.94983e-05, No Iterations 2
Min/max T:499.65 499.749
ExecutionTime = 227.01 s  ClockTime = 233 s

Time = 0.837


Solving for fluid region air
DILUPBiCGStab:  Solving for Ux, Initial residual = 0.00689183, Final residual = 0.000116475, No Iterations 1
DILUPBiCGStab:  Solving for Uy, Initial residual = 0.00489374, Final residual = 8.37779e-05, No Iterations 1
DILUPBiCGStab:  Solving for Uz, Initial residual = 0.00723185, Final residual = 0.000119412, No Iterations 1
DILUPBiCGStab:  Solving for h, Initial residual = 0.000414364, Final residual = 7.21088e-06, No Iterations 1
Min/max T:300.007 499.744
GAMG:  Solving for p_rgh, Initial residual = 0.0389298, Final residual = 0.000350706, No Iterations 2
time step continuity errors : sum local = 7.58449e-07, global = 2.27129e-22, cumulative = 2.24417e-20
Min/max rho:1 1.15895

Solving for solid region sphere
DICPCG:  Solving for h, Initial residual = 0.00560405, Final residual = 2.95133e-05, No Iterations 2
Min/max T:499.649 499.749
ExecutionTime = 229.8 s  ClockTime = 236 s

Time = 0.838


Solving for fluid region air
DILUPBiCGStab:  Solving for Ux, Initial residual = 0.00687602, Final residual = 0.000116143, No Iterations 1
DILUPBiCGStab:  Solving for Uy, Initial residual = 0.0048849, Final residual = 8.36895e-05, No Iterations 1
DILUPBiCGStab:  Solving for Uz, Initial residual = 0.00721255, Final residual = 0.000119078, No Iterations 1
DILUPBiCGStab:  Solving for h, Initial residual = 0.000414286, Final residual = 7.21049e-06, No Iterations 1
Min/max T:300.007 499.743
GAMG:  Solving for p_rgh, Initial residual = 0.0388871, Final residual = 0.000352004, No Iterations 2
time step continuity errors : sum local = 7.5942e-07, global = -7.45505e-22, cumulative = 2.16962e-20
Min/max rho:1 1.15895

Solving for solid region sphere
DICPCG:  Solving for h, Initial residual = 0.005607, Final residual = 2.95284e-05, No Iterations 2
Min/max T:499.649 499.749
ExecutionTime = 232.85 s  ClockTime = 239 s

Time = 0.839


Solving for fluid region air
DILUPBiCGStab:  Solving for Ux, Initial residual = 0.00685826, Final residual = 0.000115836, No Iterations 1
DILUPBiCGStab:  Solving for Uy, Initial residual = 0.00487688, Final residual = 8.36239e-05, No Iterations 1
DILUPBiCGStab:  Solving for Uz, Initial residual = 0.00718954, Final residual = 0.00011871, No Iterations 1
DILUPBiCGStab:  Solving for h, Initial residual = 0.00041414, Final residual = 7.2091e-06, No Iterations 1
Min/max T:300.007 499.743
GAMG:  Solving for p_rgh, Initial residual = 0.0388178, Final residual = 0.000351801, No Iterations 2
time step continuity errors : sum local = 7.57364e-07, global = 2.55115e-22, cumulative = 2.19513e-20
Min/max rho:1 1.15895

Solving for solid region sphere
DICPCG:  Solving for h, Initial residual = 0.00560994, Final residual = 2.95434e-05, No Iterations 2
Min/max T:499.649 499.749
ExecutionTime = 235.73 s  ClockTime = 241 s

Time = 0.84


Solving for fluid region air
DILUPBiCGStab:  Solving for Ux, Initial residual = 0.00683885, Final residual = 0.000115472, No Iterations 1
DILUPBiCGStab:  Solving for Uy, Initial residual = 0.00487094, Final residual = 8.35521e-05, No Iterations 1
DILUPBiCGStab:  Solving for Uz, Initial residual = 0.00716378, Final residual = 0.000118296, No Iterations 1
DILUPBiCGStab:  Solving for h, Initial residual = 0.000413928, Final residual = 7.2063e-06, No Iterations 1
Min/max T:300.007 499.743
GAMG:  Solving for p_rgh, Initial residual = 0.0387746, Final residual = 0.000349467, No Iterations 2
time step continuity errors : sum local = 7.51389e-07, global = -6.00397e-22, cumulative = 2.13509e-20
Min/max rho:1 1.15895

Solving for solid region sphere
DICPCG:  Solving for h, Initial residual = 0.00561289, Final residual = 2.95585e-05, No Iterations 2
Min/max T:499.649 499.748
ExecutionTime = 238.89 s  ClockTime = 245 s

Time = 0.841


Solving for fluid region air
DILUPBiCGStab:  Solving for Ux, Initial residual = 0.0068207, Final residual = 0.000115136, No Iterations 1
DILUPBiCGStab:  Solving for Uy, Initial residual = 0.00486476, Final residual = 8.34911e-05, No Iterations 1
DILUPBiCGStab:  Solving for Uz, Initial residual = 0.00714211, Final residual = 0.000117914, No Iterations 1
DILUPBiCGStab:  Solving for h, Initial residual = 0.000413722, Final residual = 7.20299e-06, No Iterations 1
Min/max T:300.007 499.743
GAMG:  Solving for p_rgh, Initial residual = 0.0387878, Final residual = 0.000345582, No Iterations 2
time step continuity errors : sum local = 7.4232e-07, global = 8.91175e-22, cumulative = 2.22421e-20
Min/max rho:1 1.15895

Solving for solid region sphere
DICPCG:  Solving for h, Initial residual = 0.00561583, Final residual = 2.95736e-05, No Iterations 2
Min/max T:499.649 499.748
ExecutionTime = 241.69 s  ClockTime = 247 s

Time = 0.842


Solving for fluid region air
DILUPBiCGStab:  Solving for Ux, Initial residual = 0.00679965, Final residual = 0.000114808, No Iterations 1
DILUPBiCGStab:  Solving for Uy, Initial residual = 0.00485973, Final residual = 8.3453e-05, No Iterations 1
DILUPBiCGStab:  Solving for Uz, Initial residual = 0.00711789, Final residual = 0.000117588, No Iterations 1
DILUPBiCGStab:  Solving for h, Initial residual = 0.000413476, Final residual = 7.20092e-06, No Iterations 1
Min/max T:300.007 499.742
GAMG:  Solving for p_rgh, Initial residual = 0.0388186, Final residual = 0.000341219, No Iterations 2
time step continuity errors : sum local = 7.32442e-07, global = 6.12422e-22, cumulative = 2.28545e-20
Min/max rho:1 1.15895

Solving for solid region sphere
DICPCG:  Solving for h, Initial residual = 0.00561878, Final residual = 2.95887e-05, No Iterations 2
Min/max T:499.648 499.748
ExecutionTime = 244.52 s  ClockTime = 250 s

Time = 0.843


Solving for fluid region air
DILUPBiCGStab:  Solving for Ux, Initial residual = 0.00677856, Final residual = 0.000114442, No Iterations 1
DILUPBiCGStab:  Solving for Uy, Initial residual = 0.0048537, Final residual = 8.34573e-05, No Iterations 1
DILUPBiCGStab:  Solving for Uz, Initial residual = 0.00709442, Final residual = 0.000117302, No Iterations 1
DILUPBiCGStab:  Solving for h, Initial residual = 0.000413218, Final residual = 7.1988e-06, No Iterations 1
Min/max T:300.007 499.742
GAMG:  Solving for p_rgh, Initial residual = 0.0386699, Final residual = 0.000336952, No Iterations 2
time step continuity errors : sum local = 7.23268e-07, global = -6.44194e-22, cumulative = 2.22103e-20
Min/max rho:1 1.15895

Solving for solid region sphere
DICPCG:  Solving for h, Initial residual = 0.00562173, Final residual = 2.96038e-05, No Iterations 2
Min/max T:499.648 499.748
ExecutionTime = 247.37 s  ClockTime = 253 s

Time = 0.844


Solving for fluid region air
DILUPBiCGStab:  Solving for Ux, Initial residual = 0.00676321, Final residual = 0.000114136, No Iterations 1
DILUPBiCGStab:  Solving for Uy, Initial residual = 0.00484636, Final residual = 8.34756e-05, No Iterations 1
DILUPBiCGStab:  Solving for Uz, Initial residual = 0.00706737, Final residual = 0.000117019, No Iterations 1
DILUPBiCGStab:  Solving for h, Initial residual = 0.000412942, Final residual = 7.19854e-06, No Iterations 1
Min/max T:300.008 499.742
GAMG:  Solving for p_rgh, Initial residual = 0.0384689, Final residual = 0.000332074, No Iterations 2
time step continuity errors : sum local = 7.12628e-07, global = 2.01463e-21, cumulative = 2.42249e-20
Min/max rho:1 1.15895

Solving for solid region sphere
DICPCG:  Solving for h, Initial residual = 0.00562467, Final residual = 2.96189e-05, No Iterations 2
Min/max T:499.648 499.747
ExecutionTime = 250.43 s  ClockTime = 256 s

Time = 0.845


Solving for fluid region air
DILUPBiCGStab:  Solving for Ux, Initial residual = 0.00673991, Final residual = 0.000113732, No Iterations 1
DILUPBiCGStab:  Solving for Uy, Initial residual = 0.00483973, Final residual = 8.34903e-05, No Iterations 1
DILUPBiCGStab:  Solving for Uz, Initial residual = 0.00703822, Final residual = 0.000116781, No Iterations 1
DILUPBiCGStab:  Solving for h, Initial residual = 0.000412627, Final residual = 7.19629e-06, No Iterations 1
Min/max T:300.008 499.741
GAMG:  Solving for p_rgh, Initial residual = 0.0383246, Final residual = 0.000328819, No Iterations 2
time step continuity errors : sum local = 7.05426e-07, global = -1.5903e-21, cumulative = 2.26346e-20
Min/max rho:1 1.15895

Solving for solid region sphere
DICPCG:  Solving for h, Initial residual = 0.00562762, Final residual = 2.9634e-05, No Iterations 2
Min/max T:499.648 499.747
ExecutionTime = 253.28 s  ClockTime = 259 s

Time = 0.846


Solving for fluid region air
DILUPBiCGStab:  Solving for Ux, Initial residual = 0.00671214, Final residual = 0.000113267, No Iterations 1
DILUPBiCGStab:  Solving for Uy, Initial residual = 0.00483422, Final residual = 8.35038e-05, No Iterations 1
DILUPBiCGStab:  Solving for Uz, Initial residual = 0.00700922, Final residual = 0.000116533, No Iterations 1
DILUPBiCGStab:  Solving for h, Initial residual = 0.000412347, Final residual = 7.19449e-06, No Iterations 1
Min/max T:300.008 499.741
GAMG:  Solving for p_rgh, Initial residual = 0.0381016, Final residual = 0.000327187, No Iterations 2
time step continuity errors : sum local = 7.01583e-07, global = -2.93007e-22, cumulative = 2.23416e-20
Min/max rho:1 1.15895

Solving for solid region sphere
DICPCG:  Solving for h, Initial residual = 0.00563057, Final residual = 2.96492e-05, No Iterations 2
Min/max T:499.648 499.747
ExecutionTime = 256.32 s  ClockTime = 262 s

Time = 0.847


Solving for fluid region air
DILUPBiCGStab:  Solving for Ux, Initial residual = 0.00669093, Final residual = 0.000112946, No Iterations 1
DILUPBiCGStab:  Solving for Uy, Initial residual = 0.00482904, Final residual = 8.35248e-05, No Iterations 1
DILUPBiCGStab:  Solving for Uz, Initial residual = 0.00698456, Final residual = 0.000116352, No Iterations 1
DILUPBiCGStab:  Solving for h, Initial residual = 0.00041218, Final residual = 7.19179e-06, No Iterations 1
Min/max T:300.008 499.741
GAMG:  Solving for p_rgh, Initial residual = 0.0379777, Final residual = 0.000326408, No Iterations 2
time step continuity errors : sum local = 6.99755e-07, global = -1.99565e-22, cumulative = 2.2142e-20
Min/max rho:1 1.15895

Solving for solid region sphere
DICPCG:  Solving for h, Initial residual = 0.00563351, Final residual = 2.96643e-05, No Iterations 2
Min/max T:499.648 499.747
ExecutionTime = 259.12 s  ClockTime = 265 s

Time = 0.848


Solving for fluid region air
DILUPBiCGStab:  Solving for Ux, Initial residual = 0.00667559, Final residual = 0.000112712, No Iterations 1
DILUPBiCGStab:  Solving for Uy, Initial residual = 0.00482433, Final residual = 8.35519e-05, No Iterations 1
DILUPBiCGStab:  Solving for Uz, Initial residual = 0.00696135, Final residual = 0.000116199, No Iterations 1
DILUPBiCGStab:  Solving for h, Initial residual = 0.000412055, Final residual = 7.187e-06, No Iterations 1
Min/max T:300.008 499.741
GAMG:  Solving for p_rgh, Initial residual = 0.0379475, Final residual = 0.000326046, No Iterations 2
time step continuity errors : sum local = 6.98816e-07, global = -5.58665e-22, cumulative = 2.15834e-20
Min/max rho:1 1.15895

Solving for solid region sphere
DICPCG:  Solving for h, Initial residual = 0.00563646, Final residual = 2.96795e-05, No Iterations 2
Min/max T:499.647 499.746
ExecutionTime = 262.14 s  ClockTime = 268 s

Time = 0.849


Solving for fluid region air
DILUPBiCGStab:  Solving for Ux, Initial residual = 0.00665903, Final residual = 0.000112412, No Iterations 1
DILUPBiCGStab:  Solving for Uy, Initial residual = 0.00481848, Final residual = 8.35993e-05, No Iterations 1
DILUPBiCGStab:  Solving for Uz, Initial residual = 0.00694141, Final residual = 0.000116108, No Iterations 1
DILUPBiCGStab:  Solving for h, Initial residual = 0.000411903, Final residual = 7.18129e-06, No Iterations 1
Min/max T:300.008 499.74
GAMG:  Solving for p_rgh, Initial residual = 0.0377706, Final residual = 0.000325656, No Iterations 2
time step continuity errors : sum local = 6.97657e-07, global = -7.90625e-22, cumulative = 2.07928e-20
Min/max rho:1 1.15895

Solving for solid region sphere
DICPCG:  Solving for h, Initial residual = 0.0056394, Final residual = 2.96946e-05, No Iterations 2
Min/max T:499.647 499.746
ExecutionTime = 264.93 s  ClockTime = 271 s

Time = 0.85


Solving for fluid region air
DILUPBiCGStab:  Solving for Ux, Initial residual = 0.00663787, Final residual = 0.000112098, No Iterations 1
DILUPBiCGStab:  Solving for Uy, Initial residual = 0.00481212, Final residual = 8.36323e-05, No Iterations 1
DILUPBiCGStab:  Solving for Uz, Initial residual = 0.00692568, Final residual = 0.000116052, No Iterations 1
DILUPBiCGStab:  Solving for h, Initial residual = 0.000411777, Final residual = 7.17588e-06, No Iterations 1
Min/max T:300.008 499.74
GAMG:  Solving for p_rgh, Initial residual = 0.0376004, Final residual = 0.000325245, No Iterations 2
time step continuity errors : sum local = 6.96394e-07, global = 2.87086e-21, cumulative = 2.36636e-20
Min/max rho:1 1.15895

Solving for solid region sphere
DICPCG:  Solving for h, Initial residual = 0.00564235, Final residual = 2.97098e-05, No Iterations 2
Min/max T:499.647 499.746
ExecutionTime = 268.1 s  ClockTime = 274 s

Time = 0.851


Solving for fluid region air
DILUPBiCGStab:  Solving for Ux, Initial residual = 0.00661986, Final residual = 0.000111805, No Iterations 1
DILUPBiCGStab:  Solving for Uy, Initial residual = 0.00480649, Final residual = 8.36356e-05, No Iterations 1
DILUPBiCGStab:  Solving for Uz, Initial residual = 0.00691221, Final residual = 0.000116021, No Iterations 1
DILUPBiCGStab:  Solving for h, Initial residual = 0.000411594, Final residual = 7.17003e-06, No Iterations 1
Min/max T:300.008 499.74
GAMG:  Solving for p_rgh, Initial residual = 0.0373306, Final residual = 0.000324353, No Iterations 2
time step continuity errors : sum local = 6.94025e-07, global = 2.07277e-21, cumulative = 2.57364e-20
Min/max rho:1 1.15895

Solving for solid region sphere
DICPCG:  Solving for h, Initial residual = 0.00564529, Final residual = 2.9725e-05, No Iterations 2
Min/max T:499.647 499.746
ExecutionTime = 270.98 s  ClockTime = 277 s

Time = 0.852


Solving for fluid region air
DILUPBiCGStab:  Solving for Ux, Initial residual = 0.00660255, Final residual = 0.000111572, No Iterations 1
DILUPBiCGStab:  Solving for Uy, Initial residual = 0.0048017, Final residual = 8.36619e-05, No Iterations 1
DILUPBiCGStab:  Solving for Uz, Initial residual = 0.00690238, Final residual = 0.000116025, No Iterations 1
DILUPBiCGStab:  Solving for h, Initial residual = 0.000411421, Final residual = 7.16657e-06, No Iterations 1
Min/max T:300.008 499.74
GAMG:  Solving for p_rgh, Initial residual = 0.0374901, Final residual = 0.000324518, No Iterations 2
time step continuity errors : sum local = 6.93459e-07, global = 1.00005e-21, cumulative = 2.67364e-20
Min/max rho:1 1.15895

Solving for solid region sphere
DICPCG:  Solving for h, Initial residual = 0.00564823, Final residual = 2.97402e-05, No Iterations 2
Min/max T:499.647 499.745
ExecutionTime = 273.76 s  ClockTime = 279 s

Time = 0.853


Solving for fluid region air
DILUPBiCGStab:  Solving for Ux, Initial residual = 0.00659045, Final residual = 0.000111396, No Iterations 1
DILUPBiCGStab:  Solving for Uy, Initial residual = 0.0047989, Final residual = 8.36787e-05, No Iterations 1
DILUPBiCGStab:  Solving for Uz, Initial residual = 0.00689395, Final residual = 0.000115988, No Iterations 1
DILUPBiCGStab:  Solving for h, Initial residual = 0.0004113, Final residual = 7.16123e-06, No Iterations 1
Min/max T:300.008 499.739
GAMG:  Solving for p_rgh, Initial residual = 0.0375601, Final residual = 0.000325807, No Iterations 2
time step continuity errors : sum local = 6.94879e-07, global = 1.11483e-22, cumulative = 2.68479e-20
Min/max rho:1 1.15895

Solving for solid region sphere
DICPCG:  Solving for h, Initial residual = 0.00565118, Final residual = 2.97555e-05, No Iterations 2
Min/max T:499.646 499.745
ExecutionTime = 276.76 s  ClockTime = 282 s

Time = 0.854


Solving for fluid region air
DILUPBiCGStab:  Solving for Ux, Initial residual = 0.00657489, Final residual = 0.000111166, No Iterations 1
DILUPBiCGStab:  Solving for Uy, Initial residual = 0.00479541, Final residual = 8.37003e-05, No Iterations 1
DILUPBiCGStab:  Solving for Uz, Initial residual = 0.00688217, Final residual = 0.000115917, No Iterations 1
DILUPBiCGStab:  Solving for h, Initial residual = 0.000411154, Final residual = 7.15258e-06, No Iterations 1
Min/max T:300.008 499.739
GAMG:  Solving for p_rgh, Initial residual = 0.0374958, Final residual = 0.000327343, No Iterations 2
time step continuity errors : sum local = 6.96743e-07, global = 3.40281e-22, cumulative = 2.71882e-20
Min/max rho:1 1.15895

Solving for solid region sphere
DICPCG:  Solving for h, Initial residual = 0.00565412, Final residual = 2.97707e-05, No Iterations 2
Min/max T:499.646 499.745
ExecutionTime = 279.54 s  ClockTime = 285 s

Time = 0.855


Solving for fluid region air
DILUPBiCGStab:  Solving for Ux, Initial residual = 0.00655956, Final residual = 0.000110921, No Iterations 1
DILUPBiCGStab:  Solving for Uy, Initial residual = 0.00479137, Final residual = 8.3734e-05, No Iterations 1
DILUPBiCGStab:  Solving for Uz, Initial residual = 0.00687122, Final residual = 0.000115921, No Iterations 1
DILUPBiCGStab:  Solving for h, Initial residual = 0.000411033, Final residual = 7.14329e-06, No Iterations 1
Min/max T:300.008 499.739
GAMG:  Solving for p_rgh, Initial residual = 0.0374004, Final residual = 0.0003292, No Iterations 2
time step continuity errors : sum local = 6.99676e-07, global = 1.42926e-21, cumulative = 2.86175e-20
Min/max rho:1 1.15895

Solving for solid region sphere
DICPCG:  Solving for h, Initial residual = 0.00565706, Final residual = 2.97859e-05, No Iterations 2
Min/max T:499.646 499.744
ExecutionTime = 282.56 s  ClockTime = 288 s

Time = 0.856


Solving for fluid region air
DILUPBiCGStab:  Solving for Ux, Initial residual = 0.00654626, Final residual = 0.000110755, No Iterations 1
DILUPBiCGStab:  Solving for Uy, Initial residual = 0.00478865, Final residual = 8.37635e-05, No Iterations 1
DILUPBiCGStab:  Solving for Uz, Initial residual = 0.00686497, Final residual = 0.000116016, No Iterations 1
DILUPBiCGStab:  Solving for h, Initial residual = 0.00041099, Final residual = 7.13268e-06, No Iterations 1
Min/max T:300.008 499.738
GAMG:  Solving for p_rgh, Initial residual = 0.0373508, Final residual = 0.000330764, No Iterations 2
time step continuity errors : sum local = 7.02539e-07, global = -6.75761e-22, cumulative = 2.79417e-20
Min/max rho:1 1.15895

Solving for solid region sphere
DICPCG:  Solving for h, Initial residual = 0.00566, Final residual = 2.98012e-05, No Iterations 2
Min/max T:499.646 499.744
ExecutionTime = 285.33 s  ClockTime = 291 s

Time = 0.857


Solving for fluid region air
DILUPBiCGStab:  Solving for Ux, Initial residual = 0.00653246, Final residual = 0.000110561, No Iterations 1
DILUPBiCGStab:  Solving for Uy, Initial residual = 0.00478682, Final residual = 8.3827e-05, No Iterations 1
DILUPBiCGStab:  Solving for Uz, Initial residual = 0.00686185, Final residual = 0.000116178, No Iterations 1
DILUPBiCGStab:  Solving for h, Initial residual = 0.000410969, Final residual = 7.12294e-06, No Iterations 1
Min/max T:300.008 499.738
GAMG:  Solving for p_rgh, Initial residual = 0.0373281, Final residual = 0.000331578, No Iterations 2
time step continuity errors : sum local = 7.04475e-07, global = -2.16202e-21, cumulative = 2.57797e-20
Min/max rho:1 1.15895

Solving for solid region sphere
DICPCG:  Solving for h, Initial residual = 0.00566293, Final residual = 2.98164e-05, No Iterations 2
Min/max T:499.646 499.744
ExecutionTime = 288.12 s  ClockTime = 294 s

Time = 0.858


Solving for fluid region air
DILUPBiCGStab:  Solving for Ux, Initial residual = 0.00651978, Final residual = 0.000110351, No Iterations 1
DILUPBiCGStab:  Solving for Uy, Initial residual = 0.00478487, Final residual = 8.38992e-05, No Iterations 1
DILUPBiCGStab:  Solving for Uz, Initial residual = 0.00685564, Final residual = 0.000116327, No Iterations 1
DILUPBiCGStab:  Solving for h, Initial residual = 0.000411002, Final residual = 7.11561e-06, No Iterations 1
Min/max T:300.008 499.738
GAMG:  Solving for p_rgh, Initial residual = 0.0372635, Final residual = 0.000332303, No Iterations 2
time step continuity errors : sum local = 7.06699e-07, global = -5.86319e-22, cumulative = 2.51934e-20
Min/max rho:1 1.15895

Solving for solid region sphere
DICPCG:  Solving for h, Initial residual = 0.00566587, Final residual = 2.98317e-05, No Iterations 2
Min/max T:499.646 499.744
ExecutionTime = 291.15 s  ClockTime = 297 s

Time = 0.859


Solving for fluid region air
DILUPBiCGStab:  Solving for Ux, Initial residual = 0.00650649, Final residual = 0.00011022, No Iterations 1
DILUPBiCGStab:  Solving for Uy, Initial residual = 0.00478434, Final residual = 8.39829e-05, No Iterations 1
DILUPBiCGStab:  Solving for Uz, Initial residual = 0.00685414, Final residual = 0.000116469, No Iterations 1
DILUPBiCGStab:  Solving for h, Initial residual = 0.00041108, Final residual = 7.10953e-06, No Iterations 1
Min/max T:300.008 499.738
GAMG:  Solving for p_rgh, Initial residual = 0.037473, Final residual = 0.000333102, No Iterations 2
time step continuity errors : sum local = 7.09535e-07, global = -4.0735e-22, cumulative = 2.4786e-20
Min/max rho:1 1.15895

Solving for solid region sphere
DICPCG:  Solving for h, Initial residual = 0.0056688, Final residual = 2.98469e-05, No Iterations 2
Min/max T:499.645 499.743
ExecutionTime = 293.93 s  ClockTime = 300 s

Time = 0.86


Solving for fluid region air
DILUPBiCGStab:  Solving for Ux, Initial residual = 0.00650117, Final residual = 0.000110175, No Iterations 1
DILUPBiCGStab:  Solving for Uy, Initial residual = 0.00478688, Final residual = 8.40517e-05, No Iterations 1
DILUPBiCGStab:  Solving for Uz, Initial residual = 0.00685726, Final residual = 0.000116565, No Iterations 1
DILUPBiCGStab:  Solving for h, Initial residual = 0.00041121, Final residual = 7.09865e-06, No Iterations 1
Min/max T:300.008 499.737
GAMG:  Solving for p_rgh, Initial residual = 0.0377026, Final residual = 0.00033541, No Iterations 2
time step continuity errors : sum local = 7.15734e-07, global = 1.44582e-21, cumulative = 2.62318e-20
Min/max rho:1 1.15895

Solving for solid region sphere
DICPCG:  Solving for h, Initial residual = 0.00567174, Final residual = 2.98622e-05, No Iterations 2
Min/max T:499.645 499.743
ExecutionTime = 296.95 s  ClockTime = 303 s

Time = 0.861


Solving for fluid region air
DILUPBiCGStab:  Solving for Ux, Initial residual = 0.00649464, Final residual = 0.000110139, No Iterations 1
DILUPBiCGStab:  Solving for Uy, Initial residual = 0.00479069, Final residual = 8.41843e-05, No Iterations 1
DILUPBiCGStab:  Solving for Uz, Initial residual = 0.00685878, Final residual = 0.000116653, No Iterations 1
DILUPBiCGStab:  Solving for h, Initial residual = 0.000411385, Final residual = 7.08806e-06, No Iterations 1
Min/max T:300.008 499.737
GAMG:  Solving for p_rgh, Initial residual = 0.037864, Final residual = 0.000339561, No Iterations 2
time step continuity errors : sum local = 7.25706e-07, global = 1.50716e-22, cumulative = 2.63825e-20
Min/max rho:1 1.15895

Solving for solid region sphere
DICPCG:  Solving for h, Initial residual = 0.00567467, Final residual = 2.98774e-05, No Iterations 2
Min/max T:499.645 499.743
ExecutionTime = 299.73 s  ClockTime = 305 s

Time = 0.862


Solving for fluid region air
DILUPBiCGStab:  Solving for Ux, Initial residual = 0.00649001, Final residual = 0.000110108, No Iterations 1
DILUPBiCGStab:  Solving for Uy, Initial residual = 0.00479487, Final residual = 8.43269e-05, No Iterations 1
DILUPBiCGStab:  Solving for Uz, Initial residual = 0.00686401, Final residual = 0.000116764, No Iterations 1
DILUPBiCGStab:  Solving for h, Initial residual = 0.000411581, Final residual = 7.07714e-06, No Iterations 1
Min/max T:300.008 499.737
GAMG:  Solving for p_rgh, Initial residual = 0.0380811, Final residual = 0.000344367, No Iterations 2
time step continuity errors : sum local = 7.36578e-07, global = 1.88629e-22, cumulative = 2.65712e-20
Min/max rho:1 1.15895

Solving for solid region sphere
DICPCG:  Solving for h, Initial residual = 0.0056776, Final residual = 2.98927e-05, No Iterations 2
Min/max T:499.645 499.743
ExecutionTime = 302.73 s  ClockTime = 308 s

Time = 0.863


Solving for fluid region air
DILUPBiCGStab:  Solving for Ux, Initial residual = 0.00649079, Final residual = 0.000110023, No Iterations 1
DILUPBiCGStab:  Solving for Uy, Initial residual = 0.00479964, Final residual = 8.44435e-05, No Iterations 1
DILUPBiCGStab:  Solving for Uz, Initial residual = 0.00687148, Final residual = 0.000116827, No Iterations 1
DILUPBiCGStab:  Solving for h, Initial residual = 0.000411813, Final residual = 7.06769e-06, No Iterations 1
Min/max T:300.008 499.737
GAMG:  Solving for p_rgh, Initial residual = 0.0382452, Final residual = 0.000348319, No Iterations 2
time step continuity errors : sum local = 7.45363e-07, global = 2.36339e-21, cumulative = 2.89346e-20
Min/max rho:1 1.15895

Solving for solid region sphere
DICPCG:  Solving for h, Initial residual = 0.00568053, Final residual = 2.99079e-05, No Iterations 2
Min/max T:499.645 499.742
ExecutionTime = 305.65 s  ClockTime = 311 s

Time = 0.864


Solving for fluid region air
DILUPBiCGStab:  Solving for Ux, Initial residual = 0.00649038, Final residual = 0.000109975, No Iterations 1
DILUPBiCGStab:  Solving for Uy, Initial residual = 0.00480546, Final residual = 8.45685e-05, No Iterations 1
DILUPBiCGStab:  Solving for Uz, Initial residual = 0.00688521, Final residual = 0.000116962, No Iterations 1
DILUPBiCGStab:  Solving for h, Initial residual = 0.000412005, Final residual = 7.05945e-06, No Iterations 1
Min/max T:300.008 499.736
GAMG:  Solving for p_rgh, Initial residual = 0.0384047, Final residual = 0.000351148, No Iterations 2
time step continuity errors : sum local = 7.51438e-07, global = -1.24493e-21, cumulative = 2.76896e-20
Min/max rho:1 1.15895

Solving for solid region sphere
DICPCG:  Solving for h, Initial residual = 0.00568346, Final residual = 2.99232e-05, No Iterations 2
Min/max T:499.644 499.742
ExecutionTime = 308.66 s  ClockTime = 314 s

Time = 0.865


Solving for fluid region air
DILUPBiCGStab:  Solving for Ux, Initial residual = 0.00648708, Final residual = 0.000109935, No Iterations 1
DILUPBiCGStab:  Solving for Uy, Initial residual = 0.00481088, Final residual = 8.47138e-05, No Iterations 1
DILUPBiCGStab:  Solving for Uz, Initial residual = 0.00689815, Final residual = 0.000117165, No Iterations 1
DILUPBiCGStab:  Solving for h, Initial residual = 0.000412157, Final residual = 7.05286e-06, No Iterations 1
Min/max T:300.008 499.736
GAMG:  Solving for p_rgh, Initial residual = 0.0385042, Final residual = 0.000351961, No Iterations 2
time step continuity errors : sum local = 7.53148e-07, global = 1.77141e-21, cumulative = 2.94611e-20
Min/max rho:1 1.15895

Solving for solid region sphere
DICPCG:  Solving for h, Initial residual = 0.00568638, Final residual = 2.99384e-05, No Iterations 2
Min/max T:499.644 499.742
ExecutionTime = 311.66 s  ClockTime = 317 s

Time = 0.866


Solving for fluid region air
DILUPBiCGStab:  Solving for Ux, Initial residual = 0.0064893, Final residual = 0.000109942, No Iterations 1
DILUPBiCGStab:  Solving for Uy, Initial residual = 0.00481745, Final residual = 8.48332e-05, No Iterations 1
DILUPBiCGStab:  Solving for Uz, Initial residual = 0.00690499, Final residual = 0.00011724, No Iterations 1
DILUPBiCGStab:  Solving for h, Initial residual = 0.000412255, Final residual = 7.0455e-06, No Iterations 1
Min/max T:300.008 499.736
GAMG:  Solving for p_rgh, Initial residual = 0.0385911, Final residual = 0.000352004, No Iterations 2
time step continuity errors : sum local = 7.53125e-07, global = 1.40151e-21, cumulative = 3.08626e-20
Min/max rho:1 1.15895

Solving for solid region sphere
DICPCG:  Solving for h, Initial residual = 0.00568931, Final residual = 2.99537e-05, No Iterations 2
Min/max T:499.644 499.742
ExecutionTime = 314.41 s  ClockTime = 320 s

Time = 0.867


Solving for fluid region air
DILUPBiCGStab:  Solving for Ux, Initial residual = 0.00649253, Final residual = 0.000109984, No Iterations 1
DILUPBiCGStab:  Solving for Uy, Initial residual = 0.0048231, Final residual = 8.49235e-05, No Iterations 1
DILUPBiCGStab:  Solving for Uz, Initial residual = 0.00691094, Final residual = 0.000117301, No Iterations 1
DILUPBiCGStab:  Solving for h, Initial residual = 0.000412294, Final residual = 7.0347e-06, No Iterations 1
Min/max T:300.008 499.736
GAMG:  Solving for p_rgh, Initial residual = 0.0385704, Final residual = 0.000351831, No Iterations 2
time step continuity errors : sum local = 7.52447e-07, global = -1.64791e-22, cumulative = 3.06978e-20
Min/max rho:1 1.15895

Solving for solid region sphere
DICPCG:  Solving for h, Initial residual = 0.00569223, Final residual = 2.99689e-05, No Iterations 2
Min/max T:499.644 499.741
ExecutionTime = 317.17 s  ClockTime = 323 s

Time = 0.868


Solving for fluid region air
DILUPBiCGStab:  Solving for Ux, Initial residual = 0.00649577, Final residual = 0.000110055, No Iterations 1
DILUPBiCGStab:  Solving for Uy, Initial residual = 0.00482806, Final residual = 8.50374e-05, No Iterations 1
DILUPBiCGStab:  Solving for Uz, Initial residual = 0.00692134, Final residual = 0.000117351, No Iterations 1
DILUPBiCGStab:  Solving for h, Initial residual = 0.000412272, Final residual = 7.02365e-06, No Iterations 1
Min/max T:300.008 499.735
GAMG:  Solving for p_rgh, Initial residual = 0.0385744, Final residual = 0.00035167, No Iterations 2
time step continuity errors : sum local = 7.51765e-07, global = 4.00628e-22, cumulative = 3.10984e-20
Min/max rho:1 1.15895

Solving for solid region sphere
DICPCG:  Solving for h, Initial residual = 0.00569515, Final residual = 2.99841e-05, No Iterations 2
Min/max T:499.644 499.741
ExecutionTime = 320.18 s  ClockTime = 326 s

Time = 0.869


Solving for fluid region air
DILUPBiCGStab:  Solving for Ux, Initial residual = 0.00649874, Final residual = 0.000110159, No Iterations 1
DILUPBiCGStab:  Solving for Uy, Initial residual = 0.00483446, Final residual = 8.51597e-05, No Iterations 1
DILUPBiCGStab:  Solving for Uz, Initial residual = 0.00692962, Final residual = 0.000117499, No Iterations 1
DILUPBiCGStab:  Solving for h, Initial residual = 0.000412128, Final residual = 7.01072e-06, No Iterations 1
Min/max T:300.008 499.735
GAMG:  Solving for p_rgh, Initial residual = 0.038576, Final residual = 0.000351379, No Iterations 2
time step continuity errors : sum local = 7.50964e-07, global = -7.51462e-22, cumulative = 3.03469e-20
Min/max rho:1 1.15895

Solving for solid region sphere
DICPCG:  Solving for h, Initial residual = 0.00569806, Final residual = 2.99993e-05, No Iterations 2
Min/max T:499.644 499.741
ExecutionTime = 323.18 s  ClockTime = 329 s

Time = 0.87


Solving for fluid region air
DILUPBiCGStab:  Solving for Ux, Initial residual = 0.0065053, Final residual = 0.000110327, No Iterations 1
DILUPBiCGStab:  Solving for Uy, Initial residual = 0.00484213, Final residual = 8.52899e-05, No Iterations 1
DILUPBiCGStab:  Solving for Uz, Initial residual = 0.0069416, Final residual = 0.000117715, No Iterations 1
DILUPBiCGStab:  Solving for h, Initial residual = 0.000411929, Final residual = 6.99807e-06, No Iterations 1
Min/max T:300.008 499.735
GAMG:  Solving for p_rgh, Initial residual = 0.038755, Final residual = 0.000351374, No Iterations 2
time step continuity errors : sum local = 7.50865e-07, global = 6.36108e-22, cumulative = 3.0983e-20
Min/max rho:1 1.15895

Solving for solid region sphere
DICPCG:  Solving for h, Initial residual = 0.00570098, Final residual = 3.00146e-05, No Iterations 2
Min/max T:499.643 499.741
ExecutionTime = 326.25 s  ClockTime = 332 s

Time = 0.871


Solving for fluid region air
DILUPBiCGStab:  Solving for Ux, Initial residual = 0.00651913, Final residual = 0.00011068, No Iterations 1
DILUPBiCGStab:  Solving for Uy, Initial residual = 0.00484852, Final residual = 8.54143e-05, No Iterations 1
DILUPBiCGStab:  Solving for Uz, Initial residual = 0.00695282, Final residual = 0.000117911, No Iterations 1
DILUPBiCGStab:  Solving for h, Initial residual = 0.000411683, Final residual = 6.98755e-06, No Iterations 1
Min/max T:300.009 499.734
GAMG:  Solving for p_rgh, Initial residual = 0.0390269, Final residual = 0.000351331, No Iterations 2
time step continuity errors : sum local = 7.50419e-07, global = 2.37647e-21, cumulative = 3.33595e-20
Min/max rho:1 1.15895

Solving for solid region sphere
DICPCG:  Solving for h, Initial residual = 0.00570389, Final residual = 3.00298e-05, No Iterations 2
Min/max T:499.643 499.74
ExecutionTime = 329.35 s  ClockTime = 335 s

Time = 0.872


Solving for fluid region air
DILUPBiCGStab:  Solving for Ux, Initial residual = 0.0065386, Final residual = 0.000110999, No Iterations 1
DILUPBiCGStab:  Solving for Uy, Initial residual = 0.00485292, Final residual = 8.54976e-05, No Iterations 1
DILUPBiCGStab:  Solving for Uz, Initial residual = 0.00696173, Final residual = 0.000118158, No Iterations 1
DILUPBiCGStab:  Solving for h, Initial residual = 0.000411357, Final residual = 6.97636e-06, No Iterations 1
Min/max T:300.009 499.734
GAMG:  Solving for p_rgh, Initial residual = 0.0392256, Final residual = 0.000351401, No Iterations 2
time step continuity errors : sum local = 7.50222e-07, global = -3.37854e-22, cumulative = 3.30217e-20
Min/max rho:1 1.15895

Solving for solid region sphere
DICPCG:  Solving for h, Initial residual = 0.0057068, Final residual = 3.0045e-05, No Iterations 2
Min/max T:499.643 499.74
ExecutionTime = 332.27 s  ClockTime = 338 s

Time = 0.873


Solving for fluid region air
DILUPBiCGStab:  Solving for Ux, Initial residual = 0.0065533, Final residual = 0.000111262, No Iterations 1
DILUPBiCGStab:  Solving for Uy, Initial residual = 0.00485785, Final residual = 8.56221e-05, No Iterations 1
DILUPBiCGStab:  Solving for Uz, Initial residual = 0.00696986, Final residual = 0.000118379, No Iterations 1
DILUPBiCGStab:  Solving for h, Initial residual = 0.000410952, Final residual = 6.96472e-06, No Iterations 1
Min/max T:300.009 499.734
GAMG:  Solving for p_rgh, Initial residual = 0.0392397, Final residual = 0.000352724, No Iterations 2
time step continuity errors : sum local = 7.52907e-07, global = -3.12279e-21, cumulative = 2.98989e-20
Min/max rho:1 1.15895

Solving for solid region sphere
DICPCG:  Solving for h, Initial residual = 0.00570971, Final residual = 3.00602e-05, No Iterations 2
Min/max T:499.643 499.74
ExecutionTime = 335.33 s  ClockTime = 341 s

Time = 0.874


Solving for fluid region air
DILUPBiCGStab:  Solving for Ux, Initial residual = 0.00657357, Final residual = 0.000111653, No Iterations 1
DILUPBiCGStab:  Solving for Uy, Initial residual = 0.00486325, Final residual = 8.57743e-05, No Iterations 1
DILUPBiCGStab:  Solving for Uz, Initial residual = 0.00697556, Final residual = 0.000118642, No Iterations 1
DILUPBiCGStab:  Solving for h, Initial residual = 0.000410479, Final residual = 6.95294e-06, No Iterations 1
Min/max T:300.009 499.734
GAMG:  Solving for p_rgh, Initial residual = 0.0392042, Final residual = 0.000355399, No Iterations 2
time step continuity errors : sum local = 7.58746e-07, global = -5.30222e-23, cumulative = 2.98459e-20
Min/max rho:1 1.15895

Solving for solid region sphere
DICPCG:  Solving for h, Initial residual = 0.00571262, Final residual = 3.00754e-05, No Iterations 2
Min/max T:499.643 499.74
ExecutionTime = 338.35 s  ClockTime = 344 s

Time = 0.875


Solving for fluid region air
DILUPBiCGStab:  Solving for Ux, Initial residual = 0.00659919, Final residual = 0.000112039, No Iterations 1
DILUPBiCGStab:  Solving for Uy, Initial residual = 0.0048679, Final residual = 8.59116e-05, No Iterations 1
DILUPBiCGStab:  Solving for Uz, Initial residual = 0.00699044, Final residual = 0.000118822, No Iterations 1
DILUPBiCGStab:  Solving for h, Initial residual = 0.000409897, Final residual = 6.94046e-06, No Iterations 1
Min/max T:300.009 499.733
GAMG:  Solving for p_rgh, Initial residual = 0.0392713, Final residual = 0.000358811, No Iterations 2
time step continuity errors : sum local = 7.66033e-07, global = 1.82807e-21, cumulative = 3.16739e-20
Min/max rho:1 1.15895

Solving for solid region sphere
DICPCG:  Solving for h, Initial residual = 0.00571552, Final residual = 3.00906e-05, No Iterations 2
Min/max T:499.642 499.739
ExecutionTime = 341.4 s  ClockTime = 347 s

Time = 0.876


Solving for fluid region air
DILUPBiCGStab:  Solving for Ux, Initial residual = 0.00662895, Final residual = 0.000112413, No Iterations 1
DILUPBiCGStab:  Solving for Uy, Initial residual = 0.00486953, Final residual = 8.59665e-05, No Iterations 1
DILUPBiCGStab:  Solving for Uz, Initial residual = 0.0070074, Final residual = 0.000118978, No Iterations 1
DILUPBiCGStab:  Solving for h, Initial residual = 0.000409248, Final residual = 6.92903e-06, No Iterations 1
Min/max T:300.009 499.733
GAMG:  Solving for p_rgh, Initial residual = 0.0393776, Final residual = 0.000362755, No Iterations 2
time step continuity errors : sum local = 7.74291e-07, global = -1.7142e-21, cumulative = 2.99597e-20
Min/max rho:1 1.15895

Solving for solid region sphere
DICPCG:  Solving for h, Initial residual = 0.00571842, Final residual = 3.01058e-05, No Iterations 2
Min/max T:499.642 499.739
ExecutionTime = 345.52 s  ClockTime = 351 s

Time = 0.877


Solving for fluid region air
DILUPBiCGStab:  Solving for Ux, Initial residual = 0.00666446, Final residual = 0.000112878, No Iterations 1
DILUPBiCGStab:  Solving for Uy, Initial residual = 0.00487112, Final residual = 8.59996e-05, No Iterations 1
DILUPBiCGStab:  Solving for Uz, Initial residual = 0.0070285, Final residual = 0.000119202, No Iterations 1
DILUPBiCGStab:  Solving for h, Initial residual = 0.000408539, Final residual = 6.91667e-06, No Iterations 1
Min/max T:300.009 499.733
GAMG:  Solving for p_rgh, Initial residual = 0.039493, Final residual = 0.000367975, No Iterations 2
time step continuity errors : sum local = 7.85035e-07, global = -1.34955e-21, cumulative = 2.86102e-20
Min/max rho:1 1.15895

Solving for solid region sphere
DICPCG:  Solving for h, Initial residual = 0.00572132, Final residual = 3.0121e-05, No Iterations 2
Min/max T:499.642 499.739
ExecutionTime = 349.26 s  ClockTime = 355 s

Time = 0.878


Solving for fluid region air
DILUPBiCGStab:  Solving for Ux, Initial residual = 0.00669647, Final residual = 0.000113437, No Iterations 1
DILUPBiCGStab:  Solving for Uy, Initial residual = 0.00486884, Final residual = 8.60203e-05, No Iterations 1
DILUPBiCGStab:  Solving for Uz, Initial residual = 0.0070463, Final residual = 0.000119455, No Iterations 1
DILUPBiCGStab:  Solving for h, Initial residual = 0.000407735, Final residual = 6.90244e-06, No Iterations 1
Min/max T:300.009 499.733
GAMG:  Solving for p_rgh, Initial residual = 0.0396774, Final residual = 0.000374393, No Iterations 2
time step continuity errors : sum local = 7.98369e-07, global = 1.23057e-22, cumulative = 2.87332e-20
Min/max rho:1 1.15895

Solving for solid region sphere
DICPCG:  Solving for h, Initial residual = 0.00572422, Final residual = 3.01362e-05, No Iterations 2
Min/max T:499.642 499.739
ExecutionTime = 353.45 s  ClockTime = 359 s

Time = 0.879


Solving for fluid region air
DILUPBiCGStab:  Solving for Ux, Initial residual = 0.00673558, Final residual = 0.000114103, No Iterations 1
DILUPBiCGStab:  Solving for Uy, Initial residual = 0.00486463, Final residual = 8.6027e-05, No Iterations 1
DILUPBiCGStab:  Solving for Uz, Initial residual = 0.00706228, Final residual = 0.000119686, No Iterations 1
DILUPBiCGStab:  Solving for h, Initial residual = 0.000406898, Final residual = 6.89038e-06, No Iterations 1
Min/max T:300.009 499.732
GAMG:  Solving for p_rgh, Initial residual = 0.0400891, Final residual = 0.000381644, No Iterations 2
time step continuity errors : sum local = 8.11292e-07, global = 2.15388e-22, cumulative = 2.89486e-20
Min/max rho:1 1.15895

Solving for solid region sphere
DICPCG:  Solving for h, Initial residual = 0.00572711, Final residual = 3.01513e-05, No Iterations 2
Min/max T:499.642 499.738
ExecutionTime = 357.72 s  ClockTime = 364 s

Time = 0.88


Solving for fluid region air
DILUPBiCGStab:  Solving for Ux, Initial residual = 0.00677035, Final residual = 0.000114685, No Iterations 1
DILUPBiCGStab:  Solving for Uy, Initial residual = 0.00485903, Final residual = 8.60383e-05, No Iterations 1
DILUPBiCGStab:  Solving for Uz, Initial residual = 0.00707316, Final residual = 0.000119924, No Iterations 1
DILUPBiCGStab:  Solving for h, Initial residual = 0.000406025, Final residual = 6.87813e-06, No Iterations 1
Min/max T:300.009 499.732
GAMG:  Solving for p_rgh, Initial residual = 0.0403593, Final residual = 0.000388065, No Iterations 2
time step continuity errors : sum local = 8.2447e-07, global = -2.24695e-22, cumulative = 2.87239e-20
Min/max rho:1 1.15895

Solving for solid region sphere
DICPCG:  Solving for h, Initial residual = 0.00573, Final residual = 3.01665e-05, No Iterations 2
Min/max T:499.642 499.738
ExecutionTime = 361.41 s  ClockTime = 367 s

Time = 0.881


Solving for fluid region air
DILUPBiCGStab:  Solving for Ux, Initial residual = 0.0068079, Final residual = 0.000115324, No Iterations 1
DILUPBiCGStab:  Solving for Uy, Initial residual = 0.00485175, Final residual = 8.60265e-05, No Iterations 1
DILUPBiCGStab:  Solving for Uz, Initial residual = 0.00708119, Final residual = 0.000120019, No Iterations 1
DILUPBiCGStab:  Solving for h, Initial residual = 0.000405093, Final residual = 6.864e-06, No Iterations 1
Min/max T:300.009 499.732
GAMG:  Solving for p_rgh, Initial residual = 0.0406039, Final residual = 0.00039419, No Iterations 2
time step continuity errors : sum local = 8.36907e-07, global = -1.95851e-22, cumulative = 2.85281e-20
Min/max rho:1 1.15895

Solving for solid region sphere
DICPCG:  Solving for h, Initial residual = 0.00573289, Final residual = 3.01817e-05, No Iterations 2
Min/max T:499.641 499.738
ExecutionTime = 364.62 s  ClockTime = 371 s

Time = 0.882


Solving for fluid region air
DILUPBiCGStab:  Solving for Ux, Initial residual = 0.00684334, Final residual = 0.000115757, No Iterations 1
DILUPBiCGStab:  Solving for Uy, Initial residual = 0.00484166, Final residual = 8.59152e-05, No Iterations 1
DILUPBiCGStab:  Solving for Uz, Initial residual = 0.00708985, Final residual = 0.000119974, No Iterations 1
DILUPBiCGStab:  Solving for h, Initial residual = 0.000404111, Final residual = 6.84879e-06, No Iterations 1
Min/max T:300.009 499.732
GAMG:  Solving for p_rgh, Initial residual = 0.040767, Final residual = 0.000399027, No Iterations 2
time step continuity errors : sum local = 8.47003e-07, global = 3.16011e-21, cumulative = 3.16882e-20
Min/max rho:1 1.15895

Solving for solid region sphere
DICPCG:  Solving for h, Initial residual = 0.00573578, Final residual = 3.01968e-05, No Iterations 2
Min/max T:499.641 499.738
ExecutionTime = 367.81 s  ClockTime = 374 s

Time = 0.883


Solving for fluid region air
DILUPBiCGStab:  Solving for Ux, Initial residual = 0.00687158, Final residual = 0.000116125, No Iterations 1
DILUPBiCGStab:  Solving for Uy, Initial residual = 0.00483032, Final residual = 8.57996e-05, No Iterations 1
DILUPBiCGStab:  Solving for Uz, Initial residual = 0.00709911, Final residual = 0.000120011, No Iterations 1
DILUPBiCGStab:  Solving for h, Initial residual = 0.000403089, Final residual = 6.83368e-06, No Iterations 1
Min/max T:300.009 499.731
GAMG:  Solving for p_rgh, Initial residual = 0.0406945, Final residual = 0.000401968, No Iterations 2
[...]
DILUPBiCGStab:  Solving for h, Initial residual = 0.000295743, Final residual = 3.92983e-06, No Iterations 1
Min/max T:300.15 499.281
GAMG:  Solving for p_rgh, Initial residual = 0.0496185, Final residual = 0.000321236, No Iterations 3
time step continuity errors : sum local = 4.47368e-07, global = -6.51959e-22, cumulative = 4.84508e-20
Min/max rho:1 1.15846

Solving for solid region sphere
DICPCG:  Solving for h, Initial residual = 0.00656701, Final residual = 3.45841e-05, No Iterations 2
Min/max T:499.207 499.287
ExecutionTime = 8918.52 s  ClockTime = 9497 s

Time = 2.981


Solving for fluid region air
DILUPBiCGStab:  Solving for Ux, Initial residual = 0.00822768, Final residual = 0.000103362, No Iterations 1
DILUPBiCGStab:  Solving for Uy, Initial residual = 0.00155477, Final residual = 1.92085e-05, No Iterations 1
DILUPBiCGStab:  Solving for Uz, Initial residual = 0.00635117, Final residual = 7.53602e-05, No Iterations 1
DILUPBiCGStab:  Solving for h, Initial residual = 0.000299703, Final residual = 3.95627e-06, No Iterations 1
Min/max T:300.15 499.281
GAMG:  Solving for p_rgh, Initial residual = 0.0494471, Final residual = 0.000302566, No Iterations 3
time step continuity errors : sum local = 4.20894e-07, global = 5.03878e-22, cumulative = 4.89547e-20
Min/max rho:1 1.15846

Solving for solid region sphere
DICPCG:  Solving for h, Initial residual = 0.00656691, Final residual = 3.45836e-05, No Iterations 2
Min/max T:499.207 499.286
ExecutionTime = 8922.15 s  ClockTime = 9501 s

Time = 2.982


Solving for fluid region air
DILUPBiCGStab:  Solving for Ux, Initial residual = 0.0073748, Final residual = 8.91824e-05, No Iterations 1
DILUPBiCGStab:  Solving for Uy, Initial residual = 0.0014886, Final residual = 1.79303e-05, No Iterations 1
DILUPBiCGStab:  Solving for Uz, Initial residual = 0.00634604, Final residual = 7.40751e-05, No Iterations 1
DILUPBiCGStab:  Solving for h, Initial residual = 0.000302073, Final residual = 3.98781e-06, No Iterations 1
Min/max T:300.15 499.28
GAMG:  Solving for p_rgh, Initial residual = 0.0497359, Final residual = 0.000359995, No Iterations 3
time step continuity errors : sum local = 4.94007e-07, global = 1.63987e-21, cumulative = 5.05946e-20
Min/max rho:1 1.15846

Solving for solid region sphere
DICPCG:  Solving for h, Initial residual = 0.00656682, Final residual = 3.45831e-05, No Iterations 2
Min/max T:499.207 499.286
ExecutionTime = 8925.8 s  ClockTime = 9504 s

Time = 2.983


Solving for fluid region air
DILUPBiCGStab:  Solving for Ux, Initial residual = 0.00679638, Final residual = 7.92668e-05, No Iterations 1
DILUPBiCGStab:  Solving for Uy, Initial residual = 0.00148372, Final residual = 1.75266e-05, No Iterations 1
DILUPBiCGStab:  Solving for Uz, Initial residual = 0.00630026, Final residual = 7.17754e-05, No Iterations 1
DILUPBiCGStab:  Solving for h, Initial residual = 0.000302318, Final residual = 3.98947e-06, No Iterations 1
Min/max T:300.151 499.28
GAMG:  Solving for p_rgh, Initial residual = 0.0495379, Final residual = 0.000396245, No Iterations 3
time step continuity errors : sum local = 5.42674e-07, global = -2.90588e-22, cumulative = 5.0304e-20
Min/max rho:1 1.15846

Solving for solid region sphere
DICPCG:  Solving for h, Initial residual = 0.00656672, Final residual = 3.45826e-05, No Iterations 2
Min/max T:499.207 499.286
ExecutionTime = 8929.26 s  ClockTime = 9508 s

Time = 2.984


Solving for fluid region air
DILUPBiCGStab:  Solving for Ux, Initial residual = 0.00703126, Final residual = 8.2834e-05, No Iterations 1
DILUPBiCGStab:  Solving for Uy, Initial residual = 0.00152478, Final residual = 1.77813e-05, No Iterations 1
DILUPBiCGStab:  Solving for Uz, Initial residual = 0.00627192, Final residual = 6.93984e-05, No Iterations 1
DILUPBiCGStab:  Solving for h, Initial residual = 0.000300571, Final residual = 3.9726e-06, No Iterations 1
Min/max T:300.151 499.28
GAMG:  Solving for p_rgh, Initial residual = 0.0491197, Final residual = 0.000409996, No Iterations 3
time step continuity errors : sum local = 5.61312e-07, global = -3.65169e-22, cumulative = 4.99388e-20
Min/max rho:1 1.15846

Solving for solid region sphere
DICPCG:  Solving for h, Initial residual = 0.00656663, Final residual = 3.45821e-05, No Iterations 2
Min/max T:499.206 499.286
ExecutionTime = 8932.87 s  ClockTime = 9512 s

Time = 2.985


Solving for fluid region air
DILUPBiCGStab:  Solving for Ux, Initial residual = 0.00785918, Final residual = 9.58077e-05, No Iterations 1
DILUPBiCGStab:  Solving for Uy, Initial residual = 0.00159321, Final residual = 1.82674e-05, No Iterations 1
DILUPBiCGStab:  Solving for Uz, Initial residual = 0.0062677, Final residual = 6.7407e-05, No Iterations 1
DILUPBiCGStab:  Solving for h, Initial residual = 0.000297327, Final residual = 3.9587e-06, No Iterations 1
Min/max T:300.151 499.28
GAMG:  Solving for p_rgh, Initial residual = 0.0488942, Final residual = 0.000424145, No Iterations 3
time step continuity errors : sum local = 5.81669e-07, global = 7.36982e-22, cumulative = 5.06758e-20
Min/max rho:1 1.15846

Solving for solid region sphere
DICPCG:  Solving for h, Initial residual = 0.00656653, Final residual = 3.45816e-05, No Iterations 2
Min/max T:499.206 499.286
ExecutionTime = 8936.57 s  ClockTime = 9515 s

Time = 2.986


Solving for fluid region air
DILUPBiCGStab:  Solving for Ux, Initial residual = 0.00863641, Final residual = 0.000108101, No Iterations 1
DILUPBiCGStab:  Solving for Uy, Initial residual = 0.0016655, Final residual = 1.87522e-05, No Iterations 1
DILUPBiCGStab:  Solving for Uz, Initial residual = 0.00635317, Final residual = 6.80286e-05, No Iterations 1
DILUPBiCGStab:  Solving for h, Initial residual = 0.000293013, Final residual = 3.96624e-06, No Iterations 1
Min/max T:300.151 499.28
GAMG:  Solving for p_rgh, Initial residual = 0.0493937, Final residual = 0.000419435, No Iterations 3
time step continuity errors : sum local = 5.76761e-07, global = -1.36584e-21, cumulative = 4.931e-20
Min/max rho:1 1.15846

Solving for solid region sphere
DICPCG:  Solving for h, Initial residual = 0.00656643, Final residual = 3.45811e-05, No Iterations 2
Min/max T:499.206 499.285
ExecutionTime = 8940.21 s  ClockTime = 9519 s

Time = 2.987


Solving for fluid region air
DILUPBiCGStab:  Solving for Ux, Initial residual = 0.00916692, Final residual = 0.000116075, No Iterations 1
DILUPBiCGStab:  Solving for Uy, Initial residual = 0.0017209, Final residual = 1.93199e-05, No Iterations 1
DILUPBiCGStab:  Solving for Uz, Initial residual = 0.00650443, Final residual = 7.16105e-05, No Iterations 1
DILUPBiCGStab:  Solving for h, Initial residual = 0.000290116, Final residual = 3.98122e-06, No Iterations 1
Min/max T:300.151 499.279
GAMG:  Solving for p_rgh, Initial residual = 0.0497224, Final residual = 0.000392611, No Iterations 3
time step continuity errors : sum local = 5.42314e-07, global = -2.45772e-22, cumulative = 4.90642e-20
Min/max rho:1 1.15845

Solving for solid region sphere
DICPCG:  Solving for h, Initial residual = 0.00656634, Final residual = 3.45805e-05, No Iterations 2
Min/max T:499.206 499.285
ExecutionTime = 8943.93 s  ClockTime = 9523 s

Time = 2.988


Solving for fluid region air
DILUPBiCGStab:  Solving for Ux, Initial residual = 0.00934981, Final residual = 0.000118618, No Iterations 1
DILUPBiCGStab:  Solving for Uy, Initial residual = 0.00174792, Final residual = 1.98831e-05, No Iterations 1
DILUPBiCGStab:  Solving for Uz, Initial residual = 0.00661135, Final residual = 7.54996e-05, No Iterations 1
DILUPBiCGStab:  Solving for h, Initial residual = 0.000293531, Final residual = 4.01586e-06, No Iterations 1
Min/max T:300.152 499.279
GAMG:  Solving for p_rgh, Initial residual = 0.0491968, Final residual = 0.000395965, No Iterations 3
time step continuity errors : sum local = 5.49172e-07, global = 2.00959e-22, cumulative = 4.92652e-20
Min/max rho:1 1.15845

Solving for solid region sphere
DICPCG:  Solving for h, Initial residual = 0.00656624, Final residual = 3.458e-05, No Iterations 2
Min/max T:499.206 499.285
ExecutionTime = 8947.41 s  ClockTime = 9526 s

Time = 2.989


Solving for fluid region air
DILUPBiCGStab:  Solving for Ux, Initial residual = 0.00912495, Final residual = 0.000117401, No Iterations 1
DILUPBiCGStab:  Solving for Uy, Initial residual = 0.0017215, Final residual = 2.00709e-05, No Iterations 1
DILUPBiCGStab:  Solving for Uz, Initial residual = 0.0066169, Final residual = 7.75583e-05, No Iterations 1
DILUPBiCGStab:  Solving for h, Initial residual = 0.000299733, Final residual = 4.04053e-06, No Iterations 1
Min/max T:300.152 499.279
GAMG:  Solving for p_rgh, Initial residual = 0.0488562, Final residual = 0.00036737, No Iterations 3
time step continuity errors : sum local = 5.10418e-07, global = 6.84606e-22, cumulative = 4.99498e-20
Min/max rho:1 1.15845

Solving for solid region sphere
DICPCG:  Solving for h, Initial residual = 0.00656614, Final residual = 3.45795e-05, No Iterations 2
Min/max T:499.205 499.285
ExecutionTime = 8951.02 s  ClockTime = 9530 s

Time = 2.99


Solving for fluid region air
DILUPBiCGStab:  Solving for Ux, Initial residual = 0.00857698, Final residual = 0.000110289, No Iterations 1
DILUPBiCGStab:  Solving for Uy, Initial residual = 0.00164494, Final residual = 1.95991e-05, No Iterations 1
DILUPBiCGStab:  Solving for Uz, Initial residual = 0.00654471, Final residual = 7.73432e-05, No Iterations 1
DILUPBiCGStab:  Solving for h, Initial residual = 0.000308419, Final residual = 4.08576e-06, No Iterations 1
Min/max T:300.152 499.279
GAMG:  Solving for p_rgh, Initial residual = 0.0483058, Final residual = 0.000331138, No Iterations 3
time step continuity errors : sum local = 4.58039e-07, global = -7.4832e-23, cumulative = 4.98749e-20
Min/max rho:1 1.15845

Solving for solid region sphere
DICPCG:  Solving for h, Initial residual = 0.00656604, Final residual = 3.4579e-05, No Iterations 2
Min/max T:499.205 499.285
ExecutionTime = 8954.71 s  ClockTime = 9534 s

Time = 2.991


Solving for fluid region air
DILUPBiCGStab:  Solving for Ux, Initial residual = 0.00780026, Final residual = 9.89771e-05, No Iterations 1
DILUPBiCGStab:  Solving for Uy, Initial residual = 0.00154524, Final residual = 1.86188e-05, No Iterations 1
DILUPBiCGStab:  Solving for Uz, Initial residual = 0.00647447, Final residual = 7.65899e-05, No Iterations 1
DILUPBiCGStab:  Solving for h, Initial residual = 0.000315967, Final residual = 4.17659e-06, No Iterations 1
Min/max T:300.152 499.279
GAMG:  Solving for p_rgh, Initial residual = 0.0481593, Final residual = 0.000337687, No Iterations 3
time step continuity errors : sum local = 4.66547e-07, global = -3.89271e-22, cumulative = 4.94857e-20
Min/max rho:1 1.15845

Solving for solid region sphere
DICPCG:  Solving for h, Initial residual = 0.00656595, Final residual = 3.45785e-05, No Iterations 2
Min/max T:499.205 499.284
ExecutionTime = 8958.37 s  ClockTime = 9537 s

Time = 2.992


Solving for fluid region air
DILUPBiCGStab:  Solving for Ux, Initial residual = 0.00711366, Final residual = 8.66031e-05, No Iterations 1
DILUPBiCGStab:  Solving for Uy, Initial residual = 0.00147335, Final residual = 1.77979e-05, No Iterations 1
DILUPBiCGStab:  Solving for Uz, Initial residual = 0.0063584, Final residual = 7.51258e-05, No Iterations 1
DILUPBiCGStab:  Solving for h, Initial residual = 0.000320192, Final residual = 4.28205e-06, No Iterations 1
Min/max T:300.153 499.278
GAMG:  Solving for p_rgh, Initial residual = 0.0480982, Final residual = 0.000341908, No Iterations 3
time step continuity errors : sum local = 4.708e-07, global = -7.01605e-24, cumulative = 4.94786e-20
Min/max rho:1 1.15845

Solving for solid region sphere
DICPCG:  Solving for h, Initial residual = 0.00656585, Final residual = 3.4578e-05, No Iterations 2
Min/max T:499.205 499.284
ExecutionTime = 8961.83 s  ClockTime = 9541 s

Time = 2.993


Solving for fluid region air
DILUPBiCGStab:  Solving for Ux, Initial residual = 0.00684126, Final residual = 8.04355e-05, No Iterations 1
DILUPBiCGStab:  Solving for Uy, Initial residual = 0.00146733, Final residual = 1.7612e-05, No Iterations 1
DILUPBiCGStab:  Solving for Uz, Initial residual = 0.0062434, Final residual = 7.35178e-05, No Iterations 1
DILUPBiCGStab:  Solving for h, Initial residual = 0.000319351, Final residual = 4.34706e-06, No Iterations 1
Min/max T:300.153 499.278
GAMG:  Solving for p_rgh, Initial residual = 0.0483428, Final residual = 0.000337619, No Iterations 3
time step continuity errors : sum local = 4.64308e-07, global = -1.0314e-21, cumulative = 4.84473e-20
Min/max rho:1 1.15845

Solving for solid region sphere
DICPCG:  Solving for h, Initial residual = 0.00656575, Final residual = 3.45775e-05, No Iterations 2
Min/max T:499.205 499.284
ExecutionTime = 8965.49 s  ClockTime = 9544 s

Time = 2.994


Solving for fluid region air
DILUPBiCGStab:  Solving for Ux, Initial residual = 0.00715614, Final residual = 8.35223e-05, No Iterations 1
DILUPBiCGStab:  Solving for Uy, Initial residual = 0.00151603, Final residual = 1.77404e-05, No Iterations 1
DILUPBiCGStab:  Solving for Uz, Initial residual = 0.00616582, Final residual = 7.02913e-05, No Iterations 1
DILUPBiCGStab:  Solving for h, Initial residual = 0.000317553, Final residual = 4.3714e-06, No Iterations 1
Min/max T:300.153 499.278
GAMG:  Solving for p_rgh, Initial residual = 0.0487459, Final residual = 0.000354046, No Iterations 3
time step continuity errors : sum local = 4.87345e-07, global = -3.98322e-22, cumulative = 4.80489e-20
Min/max rho:1 1.15845

Solving for solid region sphere
DICPCG:  Solving for h, Initial residual = 0.00656565, Final residual = 3.45769e-05, No Iterations 2
Min/max T:499.204 499.284
ExecutionTime = 8969.07 s  ClockTime = 9548 s

Time = 2.995


Solving for fluid region air
DILUPBiCGStab:  Solving for Ux, Initial residual = 0.00775494, Final residual = 9.08903e-05, No Iterations 1
DILUPBiCGStab:  Solving for Uy, Initial residual = 0.00158778, Final residual = 1.79676e-05, No Iterations 1
DILUPBiCGStab:  Solving for Uz, Initial residual = 0.0062242, Final residual = 6.81913e-05, No Iterations 1
DILUPBiCGStab:  Solving for h, Initial residual = 0.000315991, Final residual = 4.39975e-06, No Iterations 1
Min/max T:300.153 499.278
GAMG:  Solving for p_rgh, Initial residual = 0.0491992, Final residual = 0.000387744, No Iterations 3
time step continuity errors : sum local = 5.33271e-07, global = -2.45798e-22, cumulative = 4.78031e-20
Min/max rho:1 1.15845

Solving for solid region sphere
DICPCG:  Solving for h, Initial residual = 0.00656556, Final residual = 3.45764e-05, No Iterations 2
Min/max T:499.204 499.284
ExecutionTime = 8972.85 s  ClockTime = 9552 s

Time = 2.996


Solving for fluid region air
DILUPBiCGStab:  Solving for Ux, Initial residual = 0.0082752, Final residual = 9.8342e-05, No Iterations 1
DILUPBiCGStab:  Solving for Uy, Initial residual = 0.00166118, Final residual = 1.81782e-05, No Iterations 1
DILUPBiCGStab:  Solving for Uz, Initial residual = 0.00641407, Final residual = 6.87877e-05, No Iterations 1
DILUPBiCGStab:  Solving for h, Initial residual = 0.000313464, Final residual = 4.42898e-06, No Iterations 1
Min/max T:300.153 499.278
GAMG:  Solving for p_rgh, Initial residual = 0.0497038, Final residual = 0.000393574, No Iterations 3
time step continuity errors : sum local = 5.43029e-07, global = 3.21942e-21, cumulative = 5.10226e-20
Min/max rho:1 1.15845

Solving for solid region sphere
DICPCG:  Solving for h, Initial residual = 0.00656546, Final residual = 3.45759e-05, No Iterations 2
Min/max T:499.204 499.283
ExecutionTime = 8976.67 s  ClockTime = 9556 s

Time = 2.997


Solving for fluid region air
DILUPBiCGStab:  Solving for Ux, Initial residual = 0.00867942, Final residual = 0.000104911, No Iterations 1
DILUPBiCGStab:  Solving for Uy, Initial residual = 0.00171972, Final residual = 1.86708e-05, No Iterations 1
DILUPBiCGStab:  Solving for Uz, Initial residual = 0.00669629, Final residual = 7.2416e-05, No Iterations 1
DILUPBiCGStab:  Solving for h, Initial residual = 0.00031057, Final residual = 4.43725e-06, No Iterations 1
Min/max T:300.154 499.277
GAMG:  Solving for p_rgh, Initial residual = 0.0503427, Final residual = 0.000389539, No Iterations 3
time step continuity errors : sum local = 5.38906e-07, global = -7.05205e-22, cumulative = 5.03174e-20
Min/max rho:1 1.15845

Solving for solid region sphere
DICPCG:  Solving for h, Initial residual = 0.00656536, Final residual = 3.45754e-05, No Iterations 2
Min/max T:499.204 499.283
ExecutionTime = 8980.49 s  ClockTime = 9559 s

Time = 2.998


Solving for fluid region air
DILUPBiCGStab:  Solving for Ux, Initial residual = 0.00894383, Final residual = 0.000109713, No Iterations 1
DILUPBiCGStab:  Solving for Uy, Initial residual = 0.00176458, Final residual = 1.94574e-05, No Iterations 1
DILUPBiCGStab:  Solving for Uz, Initial residual = 0.00700999, Final residual = 7.67183e-05, No Iterations 1
DILUPBiCGStab:  Solving for h, Initial residual = 0.000309096, Final residual = 4.40741e-06, No Iterations 1
Min/max T:300.154 499.277
GAMG:  Solving for p_rgh, Initial residual = 0.0509, Final residual = 0.000391909, No Iterations 3
time step continuity errors : sum local = 5.44332e-07, global = -2.95238e-22, cumulative = 5.00221e-20
Min/max rho:1 1.15845

Solving for solid region sphere
DICPCG:  Solving for h, Initial residual = 0.00656526, Final residual = 3.45749e-05, No Iterations 2
Min/max T:499.204 499.283
ExecutionTime = 8984.09 s  ClockTime = 9563 s

Time = 2.999


Solving for fluid region air
DILUPBiCGStab:  Solving for Ux, Initial residual = 0.0090299, Final residual = 0.0001127, No Iterations 1
DILUPBiCGStab:  Solving for Uy, Initial residual = 0.0017751, Final residual = 2.02618e-05, No Iterations 1
DILUPBiCGStab:  Solving for Uz, Initial residual = 0.00719849, Final residual = 8.14899e-05, No Iterations 1
DILUPBiCGStab:  Solving for h, Initial residual = 0.000309548, Final residual = 4.31052e-06, No Iterations 1
Min/max T:300.154 499.277
GAMG:  Solving for p_rgh, Initial residual = 0.0513979, Final residual = 0.000371227, No Iterations 3
time step continuity errors : sum local = 5.17214e-07, global = -8.54129e-22, cumulative = 4.9168e-20
Min/max rho:1 1.15845

Solving for solid region sphere
DICPCG:  Solving for h, Initial residual = 0.00656516, Final residual = 3.45743e-05, No Iterations 2
Min/max T:499.203 499.283
ExecutionTime = 8987.66 s  ClockTime = 9567 s

Time = 3


Solving for fluid region air
DILUPBiCGStab:  Solving for Ux, Initial residual = 0.00879782, Final residual = 0.000110325, No Iterations 1
DILUPBiCGStab:  Solving for Uy, Initial residual = 0.00174532, Final residual = 2.0517e-05, No Iterations 1
DILUPBiCGStab:  Solving for Uz, Initial residual = 0.007212, Final residual = 8.47129e-05, No Iterations 1
DILUPBiCGStab:  Solving for h, Initial residual = 0.000311752, Final residual = 4.22783e-06, No Iterations 1
Min/max T:300.154 499.277
GAMG:  Solving for p_rgh, Initial residual = 0.0512644, Final residual = 0.000326008, No Iterations 3
time step continuity errors : sum local = 4.54737e-07, global = -2.97039e-22, cumulative = 4.88709e-20
Min/max rho:1 1.15844

Solving for solid region sphere
DICPCG:  Solving for h, Initial residual = 0.00656506, Final residual = 3.45738e-05, No Iterations 2
Min/max T:499.203 499.283
ExecutionTime = 8993.81 s  ClockTime = 9573 s

wallHeatFlux wallHeatFlux1 write:
    writing field wallHeatFlux
    min/max/integ(maxY) = 0, 0, 0
    min/max/integ(minX) = 0, 0, 0
    min/max/integ(maxX) = 0, 0, 0
    min/max/integ(minY) = 0, 0, 0
    min/max/integ(minZ) = 0, 0, 0
    min/max/integ(maxZ) = 0, 0, 0
    min/max/integ(air_to_sphere) = 549.454, 3217.17, 6.94655
    functionObjects::heatTransferCoeff sphereHeatTrfCoeff writing field: heatTransferCoeff(T)
surfaceFieldValue avgSphereHeatTrfCoeff write:
    areaAverage(air_to_sphere) of heatTransferCoeff(T) = -12.3212
    areaAverage(air_to_sphere) of T = 499.231

End

