/*---------------------------------------------------------------------------*\
| =========                 |                                                 |
| \\      /  F ield         | OpenFOAM: The Open Source CFD Toolbox           |
|  \\    /   O peration     | Version:  v1912                                 |
|   \\  /    A nd           | Website:  www.openfoam.com                      |
|    \\/     M anipulation  |                                                 |
\*---------------------------------------------------------------------------*/
Build  : _f3950763fe-20191219 OPENFOAM=1912
Arch   : "LSB;label=32;scalar=64"
Exec   : chtMultiRegionSimpleFoam
Date   : Jun 28 2020
Time   : 15:06:55
Host   : vipin-workstation
PID    : 5837
I/O    : uncollated
Case   : /home/vipin4948/Openfoam_anlaysis/sphere_in_air_extended
nProcs : 1
trapFpe: Floating point exception trapping enabled (FOAM_SIGFPE).
fileModificationChecking : Monitoring run-time modified files using timeStampMaster (fileModificationSkew 10)
allowSystemOperations : Allowing user-supplied system call operations

// * * * * * * * * * * * * * * * * * * * * * * * * * * * * * * * * * * * * * //
Create time

Create fluid mesh for region air for time = 0

Create solid mesh for region sphere for time = 0

*** Reading fluid mesh thermophysical properties for region air

    Adding to thermoFluid

Selecting thermodynamics package 
{
    type            heRhoThermo;
    mixture         pureMixture;
    transport       polynomial;
    thermo          hPolynomial;
    equationOfState icoPolynomial;
    specie          specie;
    energy          sensibleEnthalpy;
}

    Adding to rhoFluid

    Adding to UFluid

    Adding to phiFluid

    Adding to hRefFluid

    Adding to ghFluid

    Adding to ghfFluid

    Adding to turbulence

Selecting turbulence model type laminar
Selecting laminar stress model Stokes
Selecting radiationModel none
    Adding MRF

No MRF models present

    Adding fvOptions

*** Reading solid mesh thermophysical properties for region sphere

    Adding to thermos

Selecting thermodynamics package 
{
    type            heSolidThermo;
    mixture         pureMixture;
    transport       polynomial;
    thermo          hPolynomial;
    equationOfState rhoConst;
    specie          specie;
    energy          sensibleEnthalpy;
}

    Adding to radiations

Selecting radiationModel none
    Adding fvOptions

wallHeatFlux wallHeatFlux1:
    processing all wall patches

Selecting heat transfer coefficient model fixedReferenceTemperature
surfaceFieldValue avgSphereHeatTrfCoeff:
    operation     = areaAverage


Time = 0.001


Solving for fluid region air
DILUPBiCGStab:  Solving for Ux, Initial residual = 1, Final residual = 0.0128622, No Iterations 1
DILUPBiCGStab:  Solving for Uy, Initial residual = 1, Final residual = 0.00971807, No Iterations 1
DILUPBiCGStab:  Solving for Uz, Initial residual = 1, Final residual = 0.0168531, No Iterations 1
DILUPBiCGStab:  Solving for h, Initial residual = 1, Final residual = 0.00367578, No Iterations 1
Min/max T:300 499.981
GAMG:  Solving for p_rgh, Initial residual = 0.835076, Final residual = 0.00584842, No Iterations 9
time step continuity errors : sum local = 0.000162403, global = 3.7805e-19, cumulative = 3.7805e-19
Min/max rho:1 1.15898

Solving for solid region sphere
DICPCG:  Solving for h, Initial residual = 1, Final residual = 0.0331275, No Iterations 2
Min/max T:499.908 500
ExecutionTime = 8.56 s  ClockTime = 9 s

Time = 0.002


Solving for fluid region air
DILUPBiCGStab:  Solving for Ux, Initial residual = 0.215025, Final residual = 0.00665411, No Iterations 1
DILUPBiCGStab:  Solving for Uy, Initial residual = 0.0327419, Final residual = 0.000368923, No Iterations 1
DILUPBiCGStab:  Solving for Uz, Initial residual = 0.165853, Final residual = 0.00462568, No Iterations 1
DILUPBiCGStab:  Solving for h, Initial residual = 0.0530695, Final residual = 0.000171495, No Iterations 1
Min/max T:300 499.903
GAMG:  Solving for p_rgh, Initial residual = 0.939345, Final residual = 0.00703881, No Iterations 6
time step continuity errors : sum local = 4.89744e-05, global = 4.08075e-19, cumulative = 7.86125e-19
Min/max rho:1 1.15898

Solving for solid region sphere
DICPCG:  Solving for h, Initial residual = 0.180546, Final residual = 0.00351801, No Iterations 2
Min/max T:499.878 500
ExecutionTime = 12.17 s  ClockTime = 12 s

Time = 0.003


Solving for fluid region air
DILUPBiCGStab:  Solving for Ux, Initial residual = 0.11945, Final residual = 0.00227275, No Iterations 1
DILUPBiCGStab:  Solving for Uy, Initial residual = 0.165913, Final residual = 0.00255235, No Iterations 1
DILUPBiCGStab:  Solving for Uz, Initial residual = 0.121365, Final residual = 0.00215439, No Iterations 1
DILUPBiCGStab:  Solving for h, Initial residual = 0.00616981, Final residual = 2.5179e-05, No Iterations 1
Min/max T:300 499.883
GAMG:  Solving for p_rgh, Initial residual = 0.606327, Final residual = 0.00387788, No Iterations 5
time step continuity errors : sum local = 3.17947e-05, global = 2.37694e-20, cumulative = 8.09894e-19
Min/max rho:1 1.15898

Solving for solid region sphere
DICPCG:  Solving for h, Initial residual = 0.105233, Final residual = 0.0014389, No Iterations 2
Min/max T:499.854 500
ExecutionTime = 15.81 s  ClockTime = 16 s

Time = 0.004


Solving for fluid region air
DILUPBiCGStab:  Solving for Ux, Initial residual = 0.117396, Final residual = 0.00196199, No Iterations 1
DILUPBiCGStab:  Solving for Uy, Initial residual = 0.280116, Final residual = 0.0041971, No Iterations 1
DILUPBiCGStab:  Solving for Uz, Initial residual = 0.137666, Final residual = 0.00226336, No Iterations 1
DILUPBiCGStab:  Solving for h, Initial residual = 0.00439962, Final residual = 2.07519e-05, No Iterations 1
Min/max T:300 499.876
GAMG:  Solving for p_rgh, Initial residual = 0.580599, Final residual = 0.00301911, No Iterations 6
time step continuity errors : sum local = 2.55784e-05, global = -7.88583e-20, cumulative = 7.31036e-19
Min/max rho:1 1.15898

Solving for solid region sphere
DICPCG:  Solving for h, Initial residual = 0.0749459, Final residual = 0.00091446, No Iterations 2
Min/max T:499.843 500
ExecutionTime = 19.75 s  ClockTime = 20 s

Time = 0.005


Solving for fluid region air
DILUPBiCGStab:  Solving for Ux, Initial residual = 0.0630968, Final residual = 0.00113559, No Iterations 1
DILUPBiCGStab:  Solving for Uy, Initial residual = 0.0407117, Final residual = 0.000580059, No Iterations 1
DILUPBiCGStab:  Solving for Uz, Initial residual = 0.0616316, Final residual = 0.00111, No Iterations 1
DILUPBiCGStab:  Solving for h, Initial residual = 0.00293707, Final residual = 1.52967e-05, No Iterations 1
Min/max T:300 499.872
GAMG:  Solving for p_rgh, Initial residual = 0.598453, Final residual = 0.00460418, No Iterations 6
time step continuity errors : sum local = 2.43611e-05, global = -1.03058e-19, cumulative = 6.27979e-19
Min/max rho:1 1.15898

Solving for solid region sphere
DICPCG:  Solving for h, Initial residual = 0.0589464, Final residual = 0.000709784, No Iterations 2
Min/max T:499.84 500
ExecutionTime = 23.41 s  ClockTime = 23 s

Time = 0.006


Solving for fluid region air
DILUPBiCGStab:  Solving for Ux, Initial residual = 0.0414534, Final residual = 0.000739971, No Iterations 1
DILUPBiCGStab:  Solving for Uy, Initial residual = 0.0820029, Final residual = 0.00122198, No Iterations 1
DILUPBiCGStab:  Solving for Uz, Initial residual = 0.0525029, Final residual = 0.000924864, No Iterations 1
DILUPBiCGStab:  Solving for h, Initial residual = 0.00212032, Final residual = 1.17376e-05, No Iterations 1
Min/max T:300 499.87
GAMG:  Solving for p_rgh, Initial residual = 0.544322, Final residual = 0.00255899, No Iterations 4
time step continuity errors : sum local = 8.73857e-06, global = 1.2456e-20, cumulative = 6.40435e-19
Min/max rho:1 1.15898

Solving for solid region sphere
DICPCG:  Solving for h, Initial residual = 0.0486395, Final residual = 0.000587495, No Iterations 2
Min/max T:499.84 500
ExecutionTime = 26.85 s  ClockTime = 27 s

Time = 0.007


Solving for fluid region air
DILUPBiCGStab:  Solving for Ux, Initial residual = 0.0341912, Final residual = 0.000543944, No Iterations 1
DILUPBiCGStab:  Solving for Uy, Initial residual = 0.0385745, Final residual = 0.000569604, No Iterations 1
DILUPBiCGStab:  Solving for Uz, Initial residual = 0.0423989, Final residual = 0.000674087, No Iterations 1
DILUPBiCGStab:  Solving for h, Initial residual = 0.00163033, Final residual = 9.3371e-06, No Iterations 1
Min/max T:300 499.869
GAMG:  Solving for p_rgh, Initial residual = 0.465265, Final residual = 0.00204567, No Iterations 6
time step continuity errors : sum local = 4.99628e-06, global = 8.23229e-21, cumulative = 6.48667e-19
Min/max rho:1 1.15898

Solving for solid region sphere
DICPCG:  Solving for h, Initial residual = 0.0411368, Final residual = 0.000501469, No Iterations 2
Min/max T:499.84 500
ExecutionTime = 30.61 s  ClockTime = 31 s

Time = 0.008


Solving for fluid region air
DILUPBiCGStab:  Solving for Ux, Initial residual = 0.0256737, Final residual = 0.000414877, No Iterations 1
DILUPBiCGStab:  Solving for Uy, Initial residual = 0.0182413, Final residual = 0.000264802, No Iterations 1
DILUPBiCGStab:  Solving for Uz, Initial residual = 0.0289186, Final residual = 0.000464477, No Iterations 1
DILUPBiCGStab:  Solving for h, Initial residual = 0.00129964, Final residual = 7.56698e-06, No Iterations 1
Min/max T:300 499.868
GAMG:  Solving for p_rgh, Initial residual = 0.340666, Final residual = 0.00211988, No Iterations 4
time step continuity errors : sum local = 4.01764e-06, global = 1.95359e-20, cumulative = 6.68203e-19
Min/max rho:1 1.15898

Solving for solid region sphere
DICPCG:  Solving for h, Initial residual = 0.0355236, Final residual = 0.000434454, No Iterations 2
Min/max T:499.842 500
ExecutionTime = 33.86 s  ClockTime = 34 s

Time = 0.009


Solving for fluid region air
DILUPBiCGStab:  Solving for Ux, Initial residual = 0.0228268, Final residual = 0.000387775, No Iterations 1
DILUPBiCGStab:  Solving for Uy, Initial residual = 0.0194379, Final residual = 0.000284532, No Iterations 1
DILUPBiCGStab:  Solving for Uz, Initial residual = 0.0269795, Final residual = 0.000428673, No Iterations 1
DILUPBiCGStab:  Solving for h, Initial residual = 0.00106935, Final residual = 6.29051e-06, No Iterations 1
Min/max T:300 499.868
GAMG:  Solving for p_rgh, Initial residual = 0.268244, Final residual = 0.00248617, No Iterations 6
time step continuity errors : sum local = 4.12968e-06, global = 7.62779e-21, cumulative = 6.75831e-19
Min/max rho:1 1.15898

Solving for solid region sphere
DICPCG:  Solving for h, Initial residual = 0.0312607, Final residual = 0.000384408, No Iterations 2
Min/max T:499.843 500
ExecutionTime = 37.33 s  ClockTime = 37 s

Time = 0.01


Solving for fluid region air
DILUPBiCGStab:  Solving for Ux, Initial residual = 0.0210899, Final residual = 0.000355423, No Iterations 1
DILUPBiCGStab:  Solving for Uy, Initial residual = 0.0106363, Final residual = 0.000137284, No Iterations 1
DILUPBiCGStab:  Solving for Uz, Initial residual = 0.0262906, Final residual = 0.000409834, No Iterations 1
DILUPBiCGStab:  Solving for h, Initial residual = 0.000901175, Final residual = 5.37814e-06, No Iterations 1
Min/max T:300 499.868
GAMG:  Solving for p_rgh, Initial residual = 0.206978, Final residual = 0.000859505, No Iterations 5
time step continuity errors : sum local = 1.27846e-06, global = -2.62591e-20, cumulative = 6.49572e-19
Min/max rho:1 1.15898

Solving for solid region sphere
DICPCG:  Solving for h, Initial residual = 0.0279633, Final residual = 0.000341735, No Iterations 2
Min/max T:499.845 500
ExecutionTime = 41.02 s  ClockTime = 41 s

Time = 0.011


Solving for fluid region air
DILUPBiCGStab:  Solving for Ux, Initial residual = 0.0196603, Final residual = 0.000322258, No Iterations 1
DILUPBiCGStab:  Solving for Uy, Initial residual = 0.0113485, Final residual = 0.00015469, No Iterations 1
DILUPBiCGStab:  Solving for Uz, Initial residual = 0.0242271, Final residual = 0.000365591, No Iterations 1
DILUPBiCGStab:  Solving for h, Initial residual = 0.000775079, Final residual = 4.72757e-06, No Iterations 1
Min/max T:300 499.869
GAMG:  Solving for p_rgh, Initial residual = 0.168094, Final residual = 0.00134823, No Iterations 3
time step continuity errors : sum local = 1.89576e-06, global = 1.41284e-20, cumulative = 6.637e-19
Min/max rho:1 1.15898

Solving for solid region sphere
DICPCG:  Solving for h, Initial residual = 0.0253439, Final residual = 0.000305811, No Iterations 2
Min/max T:499.846 500
ExecutionTime = 44.11 s  ClockTime = 44 s

Time = 0.012


Solving for fluid region air
DILUPBiCGStab:  Solving for Ux, Initial residual = 0.0190573, Final residual = 0.000312593, No Iterations 1
DILUPBiCGStab:  Solving for Uy, Initial residual = 0.0101926, Final residual = 0.000136014, No Iterations 1
DILUPBiCGStab:  Solving for Uz, Initial residual = 0.0223616, Final residual = 0.000337746, No Iterations 1
DILUPBiCGStab:  Solving for h, Initial residual = 0.000677732, Final residual = 4.23697e-06, No Iterations 1
Min/max T:300 499.869
GAMG:  Solving for p_rgh, Initial residual = 0.147425, Final residual = 0.00118843, No Iterations 3
time step continuity errors : sum local = 1.6328e-06, global = -4.87331e-21, cumulative = 6.58827e-19
Min/max rho:1 1.15898

Solving for solid region sphere
DICPCG:  Solving for h, Initial residual = 0.0232124, Final residual = 0.000275358, No Iterations 2
Min/max T:499.848 500
ExecutionTime = 47.47 s  ClockTime = 47 s

Time = 0.013


Solving for fluid region air
DILUPBiCGStab:  Solving for Ux, Initial residual = 0.0187431, Final residual = 0.000309165, No Iterations 1
DILUPBiCGStab:  Solving for Uy, Initial residual = 0.0096639, Final residual = 0.000123398, No Iterations 1
DILUPBiCGStab:  Solving for Uz, Initial residual = 0.0210234, Final residual = 0.000321548, No Iterations 1
DILUPBiCGStab:  Solving for h, Initial residual = 0.000600727, Final residual = 3.84493e-06, No Iterations 1
Min/max T:300 499.869
GAMG:  Solving for p_rgh, Initial residual = 0.135122, Final residual = 0.000972818, No Iterations 3
time step continuity errors : sum local = 1.32591e-06, global = 9.02849e-22, cumulative = 6.59729e-19
Min/max rho:1 1.15898

Solving for solid region sphere
DICPCG:  Solving for h, Initial residual = 0.0214537, Final residual = 0.000249665, No Iterations 2
Min/max T:499.849 500
ExecutionTime = 50.73 s  ClockTime = 51 s

Time = 0.014


Solving for fluid region air
DILUPBiCGStab:  Solving for Ux, Initial residual = 0.0185074, Final residual = 0.000304171, No Iterations 1
DILUPBiCGStab:  Solving for Uy, Initial residual = 0.00947959, Final residual = 0.000120512, No Iterations 1
DILUPBiCGStab:  Solving for Uz, Initial residual = 0.0204833, Final residual = 0.000314868, No Iterations 1
DILUPBiCGStab:  Solving for h, Initial residual = 0.000538724, Final residual = 3.52224e-06, No Iterations 1
Min/max T:300 499.869
GAMG:  Solving for p_rgh, Initial residual = 0.12588, Final residual = 0.00069135, No Iterations 4
time step continuity errors : sum local = 9.58643e-07, global = -9.17769e-21, cumulative = 6.50552e-19
Min/max rho:1 1.15898

Solving for solid region sphere
DICPCG:  Solving for h, Initial residual = 0.0199845, Final residual = 0.00022804, No Iterations 2
Min/max T:499.85 500
ExecutionTime = 53.73 s  ClockTime = 54 s

Time = 0.015


Solving for fluid region air
DILUPBiCGStab:  Solving for Ux, Initial residual = 0.0184217, Final residual = 0.000300921, No Iterations 1
DILUPBiCGStab:  Solving for Uy, Initial residual = 0.00926132, Final residual = 0.00011804, No Iterations 1
DILUPBiCGStab:  Solving for Uz, Initial residual = 0.020243, Final residual = 0.000312732, No Iterations 1
DILUPBiCGStab:  Solving for h, Initial residual = 0.000487992, Final residual = 3.25563e-06, No Iterations 1
Min/max T:300 499.869
GAMG:  Solving for p_rgh, Initial residual = 0.11975, Final residual = 0.000502303, No Iterations 3
time step continuity errors : sum local = 6.80848e-07, global = -1.65946e-20, cumulative = 6.33957e-19
Min/max rho:1 1.15898

Solving for solid region sphere
DICPCG:  Solving for h, Initial residual = 0.0187405, Final residual = 0.000209725, No Iterations 2
Min/max T:499.851 500
ExecutionTime = 56.58 s  ClockTime = 57 s

Time = 0.016


Solving for fluid region air
DILUPBiCGStab:  Solving for Ux, Initial residual = 0.0182245, Final residual = 0.000294687, No Iterations 1
DILUPBiCGStab:  Solving for Uy, Initial residual = 0.00914389, Final residual = 0.00011764, No Iterations 1
DILUPBiCGStab:  Solving for Uz, Initial residual = 0.0196207, Final residual = 0.000304213, No Iterations 1
DILUPBiCGStab:  Solving for h, Initial residual = 0.000445837, Final residual = 3.03072e-06, No Iterations 1
Min/max T:300 499.87
GAMG:  Solving for p_rgh, Initial residual = 0.113091, Final residual = 0.00045313, No Iterations 3
time step continuity errors : sum local = 6.09771e-07, global = -5.41726e-21, cumulative = 6.2854e-19
Min/max rho:1 1.15898

Solving for solid region sphere
DICPCG:  Solving for h, Initial residual = 0.0176779, Final residual = 0.000194258, No Iterations 2
Min/max T:499.852 500
ExecutionTime = 59.8 s  ClockTime = 60 s

Time = 0.017


Solving for fluid region air
DILUPBiCGStab:  Solving for Ux, Initial residual = 0.0180667, Final residual = 0.000289117, No Iterations 1
DILUPBiCGStab:  Solving for Uy, Initial residual = 0.00905206, Final residual = 0.000117328, No Iterations 1
DILUPBiCGStab:  Solving for Uz, Initial residual = 0.018889, Final residual = 0.000293175, No Iterations 1
DILUPBiCGStab:  Solving for h, Initial residual = 0.000410329, Final residual = 2.84e-06, No Iterations 1
Min/max T:300 499.87
GAMG:  Solving for p_rgh, Initial residual = 0.107615, Final residual = 0.000444853, No Iterations 3
time step continuity errors : sum local = 6.06836e-07, global = 2.8575e-21, cumulative = 6.31397e-19
Min/max rho:1 1.15898

Solving for solid region sphere
DICPCG:  Solving for h, Initial residual = 0.0167604, Final residual = 0.000180979, No Iterations 2
Min/max T:499.853 500
ExecutionTime = 62.69 s  ClockTime = 63 s

Time = 0.018


Solving for fluid region air
DILUPBiCGStab:  Solving for Ux, Initial residual = 0.0179467, Final residual = 0.000284458, No Iterations 1
DILUPBiCGStab:  Solving for Uy, Initial residual = 0.00894611, Final residual = 0.000116665, No Iterations 1
DILUPBiCGStab:  Solving for Uz, Initial residual = 0.0183119, Final residual = 0.000283858, No Iterations 1
DILUPBiCGStab:  Solving for h, Initial residual = 0.000380061, Final residual = 2.67741e-06, No Iterations 1
Min/max T:300 499.87
GAMG:  Solving for p_rgh, Initial residual = 0.10404, Final residual = 0.00102335, No Iterations 2
time step continuity errors : sum local = 1.38061e-06, global = -7.19324e-21, cumulative = 6.24204e-19
Min/max rho:1 1.15898

Solving for solid region sphere
DICPCG:  Solving for h, Initial residual = 0.0159627, Final residual = 0.000169426, No Iterations 2
Min/max T:499.854 500
ExecutionTime = 65.69 s  ClockTime = 66 s

Time = 0.019


Solving for fluid region air
DILUPBiCGStab:  Solving for Ux, Initial residual = 0.0178489, Final residual = 0.000280585, No Iterations 1
DILUPBiCGStab:  Solving for Uy, Initial residual = 0.00885246, Final residual = 0.000115954, No Iterations 1
DILUPBiCGStab:  Solving for Uz, Initial residual = 0.0178928, Final residual = 0.000277328, No Iterations 1
DILUPBiCGStab:  Solving for h, Initial residual = 0.00035397, Final residual = 2.53912e-06, No Iterations 1
Min/max T:300 499.87
GAMG:  Solving for p_rgh, Initial residual = 0.102887, Final residual = 0.000360478, No Iterations 3
time step continuity errors : sum local = 4.94256e-07, global = -1.01775e-20, cumulative = 6.14027e-19
Min/max rho:1 1.15898

Solving for solid region sphere
DICPCG:  Solving for h, Initial residual = 0.0152619, Final residual = 0.000159303, No Iterations 2
Min/max T:499.855 500
ExecutionTime = 68.94 s  ClockTime = 69 s

Time = 0.02


Solving for fluid region air
DILUPBiCGStab:  Solving for Ux, Initial residual = 0.0177294, Final residual = 0.000276772, No Iterations 1
DILUPBiCGStab:  Solving for Uy, Initial residual = 0.008768, Final residual = 0.000115523, No Iterations 1
DILUPBiCGStab:  Solving for Uz, Initial residual = 0.0175157, Final residual = 0.000271631, No Iterations 1
DILUPBiCGStab:  Solving for h, Initial residual = 0.000331248, Final residual = 2.41922e-06, No Iterations 1
Min/max T:300 499.87
GAMG:  Solving for p_rgh, Initial residual = 0.098732, Final residual = 0.000958017, No Iterations 2
time step continuity errors : sum local = 1.3052e-06, global = -4.55551e-21, cumulative = 6.09471e-19
Min/max rho:1 1.15898

Solving for solid region sphere
DICPCG:  Solving for h, Initial residual = 0.0146427, Final residual = 0.000150354, No Iterations 2
Min/max T:499.855 500
ExecutionTime = 71.67 s  ClockTime = 72 s

Time = 0.021


Solving for fluid region air
DILUPBiCGStab:  Solving for Ux, Initial residual = 0.0175288, Final residual = 0.000272517, No Iterations 1
DILUPBiCGStab:  Solving for Uy, Initial residual = 0.00869901, Final residual = 0.000115267, No Iterations 1
DILUPBiCGStab:  Solving for Uz, Initial residual = 0.0171248, Final residual = 0.000266714, No Iterations 1
DILUPBiCGStab:  Solving for h, Initial residual = 0.000311282, Final residual = 2.31367e-06, No Iterations 1
Min/max T:300 499.87
GAMG:  Solving for p_rgh, Initial residual = 0.0944851, Final residual = 0.000896929, No Iterations 2
time step continuity errors : sum local = 1.22227e-06, global = -3.13251e-21, cumulative = 6.06339e-19
Min/max rho:1 1.15898

Solving for solid region sphere
DICPCG:  Solving for h, Initial residual = 0.0140908, Final residual = 0.000142373, No Iterations 2
Min/max T:499.856 500
ExecutionTime = 74.51 s  ClockTime = 75 s

Time = 0.022


Solving for fluid region air
DILUPBiCGStab:  Solving for Ux, Initial residual = 0.0172149, Final residual = 0.00026738, No Iterations 1
DILUPBiCGStab:  Solving for Uy, Initial residual = 0.00864691, Final residual = 0.000115179, No Iterations 1
DILUPBiCGStab:  Solving for Uz, Initial residual = 0.0167275, Final residual = 0.000261691, No Iterations 1
DILUPBiCGStab:  Solving for h, Initial residual = 0.000293642, Final residual = 2.22081e-06, No Iterations 1
Min/max T:300 499.871
GAMG:  Solving for p_rgh, Initial residual = 0.0913696, Final residual = 0.000856892, No Iterations 2
time step continuity errors : sum local = 1.17948e-06, global = -9.65573e-21, cumulative = 5.96683e-19
Min/max rho:1 1.15898

Solving for solid region sphere
DICPCG:  Solving for h, Initial residual = 0.0135965, Final residual = 0.000135255, No Iterations 2
Min/max T:499.856 500
ExecutionTime = 77.64 s  ClockTime = 78 s

Time = 0.023


Solving for fluid region air
DILUPBiCGStab:  Solving for Ux, Initial residual = 0.0168565, Final residual = 0.000261639, No Iterations 1
DILUPBiCGStab:  Solving for Uy, Initial residual = 0.00860763, Final residual = 0.000115499, No Iterations 1
DILUPBiCGStab:  Solving for Uz, Initial residual = 0.016314, Final residual = 0.000256105, No Iterations 1
DILUPBiCGStab:  Solving for h, Initial residual = 0.000277944, Final residual = 2.13865e-06, No Iterations 1
Min/max T:300 499.871
GAMG:  Solving for p_rgh, Initial residual = 0.0884002, Final residual = 0.000825776, No Iterations 2
time step continuity errors : sum local = 1.13668e-06, global = -6.62304e-21, cumulative = 5.9006e-19
Min/max rho:1 1.15898

Solving for solid region sphere
DICPCG:  Solving for h, Initial residual = 0.0131515, Final residual = 0.000128877, No Iterations 2
Min/max T:499.857 500
ExecutionTime = 80.64 s  ClockTime = 81 s

Time = 0.024


Solving for fluid region air
DILUPBiCGStab:  Solving for Ux, Initial residual = 0.016482, Final residual = 0.000256229, No Iterations 1
DILUPBiCGStab:  Solving for Uy, Initial residual = 0.00857394, Final residual = 0.000115898, No Iterations 1
DILUPBiCGStab:  Solving for Uz, Initial residual = 0.0158868, Final residual = 0.00025064, No Iterations 1
DILUPBiCGStab:  Solving for h, Initial residual = 0.000263863, Final residual = 2.06494e-06, No Iterations 1
Min/max T:300 499.871
GAMG:  Solving for p_rgh, Initial residual = 0.084961, Final residual = 0.000304123, No Iterations 3
time step continuity errors : sum local = 4.16199e-07, global = -4.41153e-22, cumulative = 5.89619e-19
Min/max rho:1 1.15898

Solving for solid region sphere
DICPCG:  Solving for h, Initial residual = 0.0127487, Final residual = 0.0001231, No Iterations 2
Min/max T:499.857 500
ExecutionTime = 83.89 s  ClockTime = 84 s

Time = 0.025


Solving for fluid region air
DILUPBiCGStab:  Solving for Ux, Initial residual = 0.0160653, Final residual = 0.000250269, No Iterations 1
DILUPBiCGStab:  Solving for Uy, Initial residual = 0.00855161, Final residual = 0.00011649, No Iterations 1
DILUPBiCGStab:  Solving for Uz, Initial residual = 0.015415, Final residual = 0.000244504, No Iterations 1
DILUPBiCGStab:  Solving for h, Initial residual = 0.000251183, Final residual = 1.99815e-06, No Iterations 1
Min/max T:300 499.871
GAMG:  Solving for p_rgh, Initial residual = 0.0828304, Final residual = 0.000772993, No Iterations 2
time step continuity errors : sum local = 1.05805e-06, global = 1.40591e-20, cumulative = 6.03678e-19
Min/max rho:1 1.15898

Solving for solid region sphere
DICPCG:  Solving for h, Initial residual = 0.0123829, Final residual = 0.000117877, No Iterations 2
Min/max T:499.857 500
ExecutionTime = 86.99 s  ClockTime = 87 s

Time = 0.026


Solving for fluid region air
DILUPBiCGStab:  Solving for Ux, Initial residual = 0.0156818, Final residual = 0.000245496, No Iterations 1
DILUPBiCGStab:  Solving for Uy, Initial residual = 0.00851987, Final residual = 0.000116578, No Iterations 1
DILUPBiCGStab:  Solving for Uz, Initial residual = 0.015032, Final residual = 0.000240671, No Iterations 1
DILUPBiCGStab:  Solving for h, Initial residual = 0.000239723, Final residual = 1.93796e-06, No Iterations 1
Min/max T:300 499.871
GAMG:  Solving for p_rgh, Initial residual = 0.0817159, Final residual = 0.000807642, No Iterations 2
time step continuity errors : sum local = 1.10443e-06, global = -8.98432e-21, cumulative = 5.94694e-19
Min/max rho:1 1.15898

Solving for solid region sphere
DICPCG:  Solving for h, Initial residual = 0.0120493, Final residual = 0.000113143, No Iterations 2
Min/max T:499.858 500
ExecutionTime = 90.07 s  ClockTime = 90 s

Time = 0.027


Solving for fluid region air
DILUPBiCGStab:  Solving for Ux, Initial residual = 0.0152468, Final residual = 0.000240492, No Iterations 1
DILUPBiCGStab:  Solving for Uy, Initial residual = 0.0084789, Final residual = 0.000116857, No Iterations 1
DILUPBiCGStab:  Solving for Uz, Initial residual = 0.0147383, Final residual = 0.000236996, No Iterations 1
DILUPBiCGStab:  Solving for h, Initial residual = 0.000229319, Final residual = 1.88317e-06, No Iterations 1
Min/max T:300 499.871
GAMG:  Solving for p_rgh, Initial residual = 0.0794589, Final residual = 0.00025745, No Iterations 3
time step continuity errors : sum local = 3.53187e-07, global = -1.39234e-20, cumulative = 5.8077e-19
Min/max rho:1 1.15898

Solving for solid region sphere
DICPCG:  Solving for h, Initial residual = 0.0117442, Final residual = 0.000108795, No Iterations 2
Min/max T:499.858 500
ExecutionTime = 93.11 s  ClockTime = 93 s

Time = 0.028


Solving for fluid region air
DILUPBiCGStab:  Solving for Ux, Initial residual = 0.0148147, Final residual = 0.000235358, No Iterations 1
DILUPBiCGStab:  Solving for Uy, Initial residual = 0.00844226, Final residual = 0.000117328, No Iterations 1
DILUPBiCGStab:  Solving for Uz, Initial residual = 0.0144691, Final residual = 0.000233502, No Iterations 1
DILUPBiCGStab:  Solving for h, Initial residual = 0.000219846, Final residual = 1.8332e-06, No Iterations 1
Min/max T:300 499.871
GAMG:  Solving for p_rgh, Initial residual = 0.0780878, Final residual = 0.00067492, No Iterations 2
time step continuity errors : sum local = 9.26383e-07, global = 7.85099e-21, cumulative = 5.88621e-19
Min/max rho:1 1.15898

Solving for solid region sphere
DICPCG:  Solving for h, Initial residual = 0.0114641, Final residual = 0.000104793, No Iterations 2
Min/max T:499.858 500
ExecutionTime = 96.2 s  ClockTime = 96 s

Time = 0.029


Solving for fluid region air
DILUPBiCGStab:  Solving for Ux, Initial residual = 0.0144394, Final residual = 0.000231108, No Iterations 1
DILUPBiCGStab:  Solving for Uy, Initial residual = 0.00838646, Final residual = 0.000117797, No Iterations 1
DILUPBiCGStab:  Solving for Uz, Initial residual = 0.0142236, Final residual = 0.000231276, No Iterations 1
DILUPBiCGStab:  Solving for h, Initial residual = 0.00021117, Final residual = 1.78726e-06, No Iterations 1
Min/max T:300 499.871
GAMG:  Solving for p_rgh, Initial residual = 0.0753673, Final residual = 0.000694241, No Iterations 2
time step continuity errors : sum local = 9.46543e-07, global = 5.79593e-21, cumulative = 5.94417e-19
Min/max rho:1 1.15898

Solving for solid region sphere
DICPCG:  Solving for h, Initial residual = 0.0112059, Final residual = 0.000101104, No Iterations 2
Min/max T:499.859 500
ExecutionTime = 99.31 s  ClockTime = 99 s

Time = 0.03


Solving for fluid region air
DILUPBiCGStab:  Solving for Ux, Initial residual = 0.0140692, Final residual = 0.000226998, No Iterations 1
DILUPBiCGStab:  Solving for Uy, Initial residual = 0.00832963, Final residual = 0.000118768, No Iterations 1
DILUPBiCGStab:  Solving for Uz, Initial residual = 0.0140699, Final residual = 0.000229967, No Iterations 1
DILUPBiCGStab:  Solving for h, Initial residual = 0.000203207, Final residual = 1.74491e-06, No Iterations 1
Min/max T:300 499.871
GAMG:  Solving for p_rgh, Initial residual = 0.0732221, Final residual = 0.000726786, No Iterations 2
time step continuity errors : sum local = 9.91746e-07, global = 4.50388e-21, cumulative = 5.98921e-19
Min/max rho:1 1.15898

Solving for solid region sphere
DICPCG:  Solving for h, Initial residual = 0.0109672, Final residual = 9.76764e-05, No Iterations 2
Min/max T:499.859 500
ExecutionTime = 102.42 s  ClockTime = 102 s

Time = 0.031


Solving for fluid region air
DILUPBiCGStab:  Solving for Ux, Initial residual = 0.0137458, Final residual = 0.000223244, No Iterations 1
DILUPBiCGStab:  Solving for Uy, Initial residual = 0.00826641, Final residual = 0.000119809, No Iterations 1
DILUPBiCGStab:  Solving for Uz, Initial residual = 0.0140092, Final residual = 0.000229263, No Iterations 1
DILUPBiCGStab:  Solving for h, Initial residual = 0.000195867, Final residual = 1.70564e-06, No Iterations 1
Min/max T:300 499.871
GAMG:  Solving for p_rgh, Initial residual = 0.0700523, Final residual = 0.000271682, No Iterations 3
time step continuity errors : sum local = 3.70112e-07, global = 1.38922e-20, cumulative = 6.12813e-19
Min/max rho:1 1.15898

Solving for solid region sphere
DICPCG:  Solving for h, Initial residual = 0.0107458, Final residual = 9.45002e-05, No Iterations 2
Min/max T:499.859 500
ExecutionTime = 105.56 s  ClockTime = 106 s

Time = 0.032


Solving for fluid region air
DILUPBiCGStab:  Solving for Ux, Initial residual = 0.0134399, Final residual = 0.000219732, No Iterations 1
DILUPBiCGStab:  Solving for Uy, Initial residual = 0.00820263, Final residual = 0.000121002, No Iterations 1
DILUPBiCGStab:  Solving for Uz, Initial residual = 0.0139704, Final residual = 0.000228881, No Iterations 1
DILUPBiCGStab:  Solving for h, Initial residual = 0.000189104, Final residual = 1.66906e-06, No Iterations 1
Min/max T:300 499.871
GAMG:  Solving for p_rgh, Initial residual = 0.0696022, Final residual = 0.000695712, No Iterations 2
time step continuity errors : sum local = 9.38594e-07, global = 2.26543e-21, cumulative = 6.15079e-19
Min/max rho:1 1.15898

Solving for solid region sphere
DICPCG:  Solving for h, Initial residual = 0.0105403, Final residual = 9.15588e-05, No Iterations 2
Min/max T:499.859 500
ExecutionTime = 108.66 s  ClockTime = 109 s

Time = 0.033


Solving for fluid region air
DILUPBiCGStab:  Solving for Ux, Initial residual = 0.0131527, Final residual = 0.00021685, No Iterations 1
DILUPBiCGStab:  Solving for Uy, Initial residual = 0.00811617, Final residual = 0.000121397, No Iterations 1
DILUPBiCGStab:  Solving for Uz, Initial residual = 0.0139234, Final residual = 0.00022843, No Iterations 1
DILUPBiCGStab:  Solving for h, Initial residual = 0.000182841, Final residual = 1.6347e-06, No Iterations 1
Min/max T:300 499.871
GAMG:  Solving for p_rgh, Initial residual = 0.0682909, Final residual = 0.000250837, No Iterations 3
time step continuity errors : sum local = 3.3849e-07, global = -1.53797e-20, cumulative = 5.99699e-19
Min/max rho:1 1.15898

Solving for solid region sphere
DICPCG:  Solving for h, Initial residual = 0.0103488, Final residual = 8.88116e-05, No Iterations 2
Min/max T:499.859 499.999
ExecutionTime = 111.87 s  ClockTime = 112 s

Time = 0.034


Solving for fluid region air
DILUPBiCGStab:  Solving for Ux, Initial residual = 0.012862, Final residual = 0.00021342, No Iterations 1
DILUPBiCGStab:  Solving for Uy, Initial residual = 0.00804101, Final residual = 0.000121713, No Iterations 1
DILUPBiCGStab:  Solving for Uz, Initial residual = 0.0139021, Final residual = 0.000228165, No Iterations 1
DILUPBiCGStab:  Solving for h, Initial residual = 0.000177011, Final residual = 1.60207e-06, No Iterations 1
Min/max T:300 499.872
GAMG:  Solving for p_rgh, Initial residual = 0.0670128, Final residual = 0.000232153, No Iterations 3
time step continuity errors : sum local = 3.09829e-07, global = -1.28294e-20, cumulative = 5.86869e-19
Min/max rho:1 1.15898

Solving for solid region sphere
DICPCG:  Solving for h, Initial residual = 0.0101703, Final residual = 8.62528e-05, No Iterations 2
Min/max T:499.859 499.999
ExecutionTime = 114.81 s  ClockTime = 115 s

Time = 0.035


Solving for fluid region air
DILUPBiCGStab:  Solving for Ux, Initial residual = 0.0126034, Final residual = 0.000210191, No Iterations 1
DILUPBiCGStab:  Solving for Uy, Initial residual = 0.00797222, Final residual = 0.000121868, No Iterations 1
DILUPBiCGStab:  Solving for Uz, Initial residual = 0.0138806, Final residual = 0.000228302, No Iterations 1
DILUPBiCGStab:  Solving for h, Initial residual = 0.000171572, Final residual = 1.57097e-06, No Iterations 1
Min/max T:300 499.872
GAMG:  Solving for p_rgh, Initial residual = 0.0662376, Final residual = 0.000228007, No Iterations 3
time step continuity errors : sum local = 3.01664e-07, global = -6.52553e-21, cumulative = 5.80344e-19
Min/max rho:1 1.15898

Solving for solid region sphere
DICPCG:  Solving for h, Initial residual = 0.0100037, Final residual = 8.38671e-05, No Iterations 2
Min/max T:499.86 499.999
ExecutionTime = 117.92 s  ClockTime = 118 s

Time = 0.036


Solving for fluid region air
DILUPBiCGStab:  Solving for Ux, Initial residual = 0.0123528, Final residual = 0.00020703, No Iterations 1
DILUPBiCGStab:  Solving for Uy, Initial residual = 0.00789961, Final residual = 0.000121781, No Iterations 1
DILUPBiCGStab:  Solving for Uz, Initial residual = 0.013864, Final residual = 0.00022879, No Iterations 1
DILUPBiCGStab:  Solving for h, Initial residual = 0.000166494, Final residual = 1.54131e-06, No Iterations 1
Min/max T:300 499.872
GAMG:  Solving for p_rgh, Initial residual = 0.0657438, Final residual = 0.000242762, No Iterations 3
time step continuity errors : sum local = 3.20565e-07, global = -1.94944e-20, cumulative = 5.60849e-19
Min/max rho:1 1.15898

Solving for solid region sphere
DICPCG:  Solving for h, Initial residual = 0.00984781, Final residual = 8.16493e-05, No Iterations 2
Min/max T:499.86 499.999
ExecutionTime = 121.19 s  ClockTime = 121 s

Time = 0.037


Solving for fluid region air
DILUPBiCGStab:  Solving for Ux, Initial residual = 0.0121167, Final residual = 0.000203951, No Iterations 1
DILUPBiCGStab:  Solving for Uy, Initial residual = 0.00781876, Final residual = 0.000121507, No Iterations 1
DILUPBiCGStab:  Solving for Uz, Initial residual = 0.0138429, Final residual = 0.000229372, No Iterations 1
DILUPBiCGStab:  Solving for h, Initial residual = 0.000161752, Final residual = 1.51305e-06, No Iterations 1
Min/max T:300 499.872
GAMG:  Solving for p_rgh, Initial residual = 0.0661748, Final residual = 0.000237449, No Iterations 3
time step continuity errors : sum local = 3.06815e-07, global = -6.70173e-21, cumulative = 5.54148e-19
Min/max rho:1 1.15898

Solving for solid region sphere
DICPCG:  Solving for h, Initial residual = 0.00970155, Final residual = 7.95818e-05, No Iterations 2
Min/max T:499.86 499.999
ExecutionTime = 124.41 s  ClockTime = 124 s

Time = 0.038


Solving for fluid region air
DILUPBiCGStab:  Solving for Ux, Initial residual = 0.0118872, Final residual = 0.000200745, No Iterations 1
DILUPBiCGStab:  Solving for Uy, Initial residual = 0.00773441, Final residual = 0.00012109, No Iterations 1
DILUPBiCGStab:  Solving for Uz, Initial residual = 0.0138271, Final residual = 0.000229551, No Iterations 1
DILUPBiCGStab:  Solving for h, Initial residual = 0.000157319, Final residual = 1.48621e-06, No Iterations 1
Min/max T:300 499.872
GAMG:  Solving for p_rgh, Initial residual = 0.0662923, Final residual = 0.000242301, No Iterations 3
time step continuity errors : sum local = 3.09498e-07, global = -1.84705e-20, cumulative = 5.35677e-19
Min/max rho:1 1.15898

Solving for solid region sphere
DICPCG:  Solving for h, Initial residual = 0.0095644, Final residual = 7.76566e-05, No Iterations 2
Min/max T:499.86 499.999
ExecutionTime = 127.62 s  ClockTime = 128 s

Time = 0.039


Solving for fluid region air
DILUPBiCGStab:  Solving for Ux, Initial residual = 0.0116702, Final residual = 0.000197768, No Iterations 1
DILUPBiCGStab:  Solving for Uy, Initial residual = 0.00764781, Final residual = 0.000120547, No Iterations 1
DILUPBiCGStab:  Solving for Uz, Initial residual = 0.0137938, Final residual = 0.000229575, No Iterations 1
DILUPBiCGStab:  Solving for h, Initial residual = 0.000153163, Final residual = 1.46053e-06, No Iterations 1
Min/max T:300 499.872
GAMG:  Solving for p_rgh, Initial residual = 0.0663676, Final residual = 0.000251297, No Iterations 3
time step continuity errors : sum local = 3.15728e-07, global = -3.19566e-21, cumulative = 5.32482e-19
Min/max rho:1 1.15898

Solving for solid region sphere
DICPCG:  Solving for h, Initial residual = 0.0094355, Final residual = 7.58456e-05, No Iterations 2
Min/max T:499.86 499.999
ExecutionTime = 130.79 s  ClockTime = 131 s

Time = 0.04


Solving for fluid region air
DILUPBiCGStab:  Solving for Ux, Initial residual = 0.0114784, Final residual = 0.000195021, No Iterations 1
DILUPBiCGStab:  Solving for Uy, Initial residual = 0.00755805, Final residual = 0.000119911, No Iterations 1
DILUPBiCGStab:  Solving for Uz, Initial residual = 0.0137503, Final residual = 0.000229349, No Iterations 1
DILUPBiCGStab:  Solving for h, Initial residual = 0.00014926, Final residual = 1.43592e-06, No Iterations 1
Min/max T:300 499.872
GAMG:  Solving for p_rgh, Initial residual = 0.0669804, Final residual = 0.000257139, No Iterations 3
time step continuity errors : sum local = 3.18261e-07, global = 1.60317e-20, cumulative = 5.48513e-19
Min/max rho:1 1.15898

Solving for solid region sphere
DICPCG:  Solving for h, Initial residual = 0.00931403, Final residual = 7.414e-05, No Iterations 2
Min/max T:499.86 499.998
ExecutionTime = 134.02 s  ClockTime = 134 s

Time = 0.041


Solving for fluid region air
DILUPBiCGStab:  Solving for Ux, Initial residual = 0.0113109, Final residual = 0.000192728, No Iterations 1
DILUPBiCGStab:  Solving for Uy, Initial residual = 0.00746591, Final residual = 0.000119179, No Iterations 1
DILUPBiCGStab:  Solving for Uz, Initial residual = 0.0137013, Final residual = 0.000229196, No Iterations 1
DILUPBiCGStab:  Solving for h, Initial residual = 0.000145583, Final residual = 1.41217e-06, No Iterations 1
Min/max T:300 499.872
GAMG:  Solving for p_rgh, Initial residual = 0.0680627, Final residual = 0.00025863, No Iterations 3
time step continuity errors : sum local = 3.14899e-07, global = 1.08762e-20, cumulative = 5.59389e-19
Min/max rho:1 1.15898

Solving for solid region sphere
DICPCG:  Solving for h, Initial residual = 0.00919958, Final residual = 7.25307e-05, No Iterations 2
Min/max T:499.86 499.998
ExecutionTime = 137.22 s  ClockTime = 137 s

Time = 0.042


Solving for fluid region air
DILUPBiCGStab:  Solving for Ux, Initial residual = 0.0111581, Final residual = 0.000190739, No Iterations 1
DILUPBiCGStab:  Solving for Uy, Initial residual = 0.0073717, Final residual = 0.000118384, No Iterations 1
DILUPBiCGStab:  Solving for Uz, Initial residual = 0.013643, Final residual = 0.000228956, No Iterations 1
DILUPBiCGStab:  Solving for h, Initial residual = 0.000142111, Final residual = 1.38924e-06, No Iterations 1
Min/max T:300 499.872
GAMG:  Solving for p_rgh, Initial residual = 0.0686421, Final residual = 0.000259007, No Iterations 3
time step continuity errors : sum local = 3.09959e-07, global = -3.00912e-21, cumulative = 5.5638e-19
Min/max rho:1 1.15898

Solving for solid region sphere
DICPCG:  Solving for h, Initial residual = 0.00909173, Final residual = 7.10068e-05, No Iterations 2
Min/max T:499.86 499.998
ExecutionTime = 140.39 s  ClockTime = 140 s

Time = 0.043


Solving for fluid region air
DILUPBiCGStab:  Solving for Ux, Initial residual = 0.0110241, Final residual = 0.000188937, No Iterations 1
DILUPBiCGStab:  Solving for Uy, Initial residual = 0.00727489, Final residual = 0.000117572, No Iterations 1
DILUPBiCGStab:  Solving for Uz, Initial residual = 0.0135823, Final residual = 0.000228642, No Iterations 1
DILUPBiCGStab:  Solving for h, Initial residual = 0.000138829, Final residual = 1.36717e-06, No Iterations 1
Min/max T:299.999 499.872
GAMG:  Solving for p_rgh, Initial residual = 0.0686844, Final residual = 0.000258558, No Iterations 3
time step continuity errors : sum local = 3.03276e-07, global = 1.51794e-20, cumulative = 5.7156e-19
Min/max rho:1 1.15898

Solving for solid region sphere
DICPCG:  Solving for h, Initial residual = 0.0089899, Final residual = 6.95631e-05, No Iterations 2
Min/max T:499.86 499.998
ExecutionTime = 143.45 s  ClockTime = 143 s

Time = 0.044


Solving for fluid region air
DILUPBiCGStab:  Solving for Ux, Initial residual = 0.0109075, Final residual = 0.000187399, No Iterations 1
DILUPBiCGStab:  Solving for Uy, Initial residual = 0.00717659, Final residual = 0.000116751, No Iterations 1
DILUPBiCGStab:  Solving for Uz, Initial residual = 0.0135131, Final residual = 0.00022825, No Iterations 1
DILUPBiCGStab:  Solving for h, Initial residual = 0.000135723, Final residual = 1.34598e-06, No Iterations 1
Min/max T:299.999 499.872
GAMG:  Solving for p_rgh, Initial residual = 0.0687267, Final residual = 0.000260865, No Iterations 3
time step continuity errors : sum local = 2.99635e-07, global = 5.14161e-21, cumulative = 5.76701e-19
Min/max rho:1 1.15898

Solving for solid region sphere
DICPCG:  Solving for h, Initial residual = 0.00889363, Final residual = 6.81973e-05, No Iterations 2
Min/max T:499.86 499.998
ExecutionTime = 146.63 s  ClockTime = 147 s

Time = 0.045


Solving for fluid region air
DILUPBiCGStab:  Solving for Ux, Initial residual = 0.0108073, Final residual = 0.000186229, No Iterations 1
DILUPBiCGStab:  Solving for Uy, Initial residual = 0.00707843, Final residual = 0.000116052, No Iterations 1
DILUPBiCGStab:  Solving for Uz, Initial residual = 0.0134293, Final residual = 0.000227741, No Iterations 1
DILUPBiCGStab:  Solving for h, Initial residual = 0.00013278, Final residual = 1.32563e-06, No Iterations 1
Min/max T:299.999 499.872
GAMG:  Solving for p_rgh, Initial residual = 0.0689839, Final residual = 0.000263092, No Iterations 3
time step continuity errors : sum local = 2.96008e-07, global = 2.28554e-20, cumulative = 5.99557e-19
Min/max rho:1 1.15898

Solving for solid region sphere
DICPCG:  Solving for h, Initial residual = 0.00880264, Final residual = 6.69055e-05, No Iterations 2
Min/max T:499.86 499.997
ExecutionTime = 149.89 s  ClockTime = 150 s

Time = 0.046


Solving for fluid region air
DILUPBiCGStab:  Solving for Ux, Initial residual = 0.0107291, Final residual = 0.000185244, No Iterations 1
DILUPBiCGStab:  Solving for Uy, Initial residual = 0.00698238, Final residual = 0.00011549, No Iterations 1
DILUPBiCGStab:  Solving for Uz, Initial residual = 0.0133288, Final residual = 0.000227018, No Iterations 1
DILUPBiCGStab:  Solving for h, Initial residual = 0.000129987, Final residual = 1.30603e-06, No Iterations 1
Min/max T:299.999 499.872
GAMG:  Solving for p_rgh, Initial residual = 0.0687374, Final residual = 0.000257714, No Iterations 3
time step continuity errors : sum local = 2.8421e-07, global = 1.10451e-20, cumulative = 6.10602e-19
Min/max rho:1 1.15898

Solving for solid region sphere
DICPCG:  Solving for h, Initial residual = 0.00871664, Final residual = 6.56817e-05, No Iterations 2
Min/max T:499.86 499.997
ExecutionTime = 153.11 s  ClockTime = 153 s

Time = 0.047


Solving for fluid region air
DILUPBiCGStab:  Solving for Ux, Initial residual = 0.0106568, Final residual = 0.000184441, No Iterations 1
DILUPBiCGStab:  Solving for Uy, Initial residual = 0.00688933, Final residual = 0.00011512, No Iterations 1
DILUPBiCGStab:  Solving for Uz, Initial residual = 0.0132204, Final residual = 0.000226077, No Iterations 1
DILUPBiCGStab:  Solving for h, Initial residual = 0.000127332, Final residual = 1.28706e-06, No Iterations 1
Min/max T:299.999 499.872
GAMG:  Solving for p_rgh, Initial residual = 0.0679197, Final residual = 0.00025433, No Iterations 3
time step continuity errors : sum local = 2.74735e-07, global = -6.5472e-22, cumulative = 6.09947e-19
Min/max rho:1 1.15898

Solving for solid region sphere
DICPCG:  Solving for h, Initial residual = 0.00863527, Final residual = 6.45194e-05, No Iterations 2
Min/max T:499.86 499.997
ExecutionTime = 156.29 s  ClockTime = 156 s

Time = 0.048


Solving for fluid region air
DILUPBiCGStab:  Solving for Ux, Initial residual = 0.0105773, Final residual = 0.00018355, No Iterations 1
DILUPBiCGStab:  Solving for Uy, Initial residual = 0.00680064, Final residual = 0.000114844, No Iterations 1
DILUPBiCGStab:  Solving for Uz, Initial residual = 0.0131092, Final residual = 0.000224945, No Iterations 1
DILUPBiCGStab:  Solving for h, Initial residual = 0.000124803, Final residual = 1.26866e-06, No Iterations 1
Min/max T:299.999 499.872
GAMG:  Solving for p_rgh, Initial residual = 0.0663931, Final residual = 0.000253789, No Iterations 3
time step continuity errors : sum local = 2.68572e-07, global = -4.64219e-21, cumulative = 6.05305e-19
Min/max rho:1 1.15898

Solving for solid region sphere
DICPCG:  Solving for h, Initial residual = 0.00855817, Final residual = 6.34141e-05, No Iterations 2
Min/max T:499.86 499.996
ExecutionTime = 159.25 s  ClockTime = 159 s

Time = 0.049


Solving for fluid region air
DILUPBiCGStab:  Solving for Ux, Initial residual = 0.0104952, Final residual = 0.000182617, No Iterations 1
DILUPBiCGStab:  Solving for Uy, Initial residual = 0.00671773, Final residual = 0.000114577, No Iterations 1
DILUPBiCGStab:  Solving for Uz, Initial residual = 0.0130009, Final residual = 0.000223905, No Iterations 1
DILUPBiCGStab:  Solving for h, Initial residual = 0.000122393, Final residual = 1.25085e-06, No Iterations 1
Min/max T:299.999 499.872
GAMG:  Solving for p_rgh, Initial residual = 0.0645692, Final residual = 0.00025099, No Iterations 3
time step continuity errors : sum local = 2.60258e-07, global = -3.94178e-21, cumulative = 6.01363e-19
Min/max rho:1 1.15898

Solving for solid region sphere
DICPCG:  Solving for h, Initial residual = 0.0084851, Final residual = 6.2361e-05, No Iterations 2
Min/max T:499.86 499.996
ExecutionTime = 162.45 s  ClockTime = 162 s

Time = 0.05


Solving for fluid region air
DILUPBiCGStab:  Solving for Ux, Initial residual = 0.0104055, Final residual = 0.000181559, No Iterations 1
DILUPBiCGStab:  Solving for Uy, Initial residual = 0.00663959, Final residual = 0.000114254, No Iterations 1
DILUPBiCGStab:  Solving for Uz, Initial residual = 0.0128911, Final residual = 0.000222876, No Iterations 1
DILUPBiCGStab:  Solving for h, Initial residual = 0.000120093, Final residual = 1.23363e-06, No Iterations 1
Min/max T:299.999 499.872
GAMG:  Solving for p_rgh, Initial residual = 0.0627701, Final residual = 0.000248122, No Iterations 3
time step continuity errors : sum local = 2.52298e-07, global = 4.60664e-21, cumulative = 6.0597e-19
Min/max rho:1 1.15898

Solving for solid region sphere
DICPCG:  Solving for h, Initial residual = 0.00841582, Final residual = 6.1358e-05, No Iterations 2
Min/max T:499.86 499.996
ExecutionTime = 165.72 s  ClockTime = 166 s

Time = 0.051


Solving for fluid region air
DILUPBiCGStab:  Solving for Ux, Initial residual = 0.0103134, Final residual = 0.000180522, No Iterations 1
DILUPBiCGStab:  Solving for Uy, Initial residual = 0.00656653, Final residual = 0.000113849, No Iterations 1
DILUPBiCGStab:  Solving for Uz, Initial residual = 0.0127853, Final residual = 0.000221851, No Iterations 1
DILUPBiCGStab:  Solving for h, Initial residual = 0.000117898, Final residual = 1.21699e-06, No Iterations 1
Min/max T:299.999 499.872
GAMG:  Solving for p_rgh, Initial residual = 0.0609966, Final residual = 0.000244735, No Iterations 3
time step continuity errors : sum local = 2.44411e-07, global = 3.28442e-21, cumulative = 6.09254e-19
Min/max rho:1 1.15898

Solving for solid region sphere
DICPCG:  Solving for h, Initial residual = 0.00835012, Final residual = 6.04044e-05, No Iterations 2
Min/max T:499.86 499.995
ExecutionTime = 168.72 s  ClockTime = 169 s

Time = 0.052


Solving for fluid region air
DILUPBiCGStab:  Solving for Ux, Initial residual = 0.010223, Final residual = 0.000179509, No Iterations 1
DILUPBiCGStab:  Solving for Uy, Initial residual = 0.00649836, Final residual = 0.000113427, No Iterations 1
DILUPBiCGStab:  Solving for Uz, Initial residual = 0.012681, Final residual = 0.000221022, No Iterations 1
DILUPBiCGStab:  Solving for h, Initial residual = 0.000115802, Final residual = 1.20087e-06, No Iterations 1
Min/max T:299.999 499.872
GAMG:  Solving for p_rgh, Initial residual = 0.0595228, Final residual = 0.000238552, No Iterations 3
time step continuity errors : sum local = 2.34355e-07, global = 4.89052e-21, cumulative = 6.14145e-19
Min/max rho:1 1.15898

Solving for solid region sphere
DICPCG:  Solving for h, Initial residual = 0.00828779, Final residual = 5.94994e-05, No Iterations 2
Min/max T:499.86 499.995
ExecutionTime = 171.9 s  ClockTime = 172 s

Time = 0.053


Solving for fluid region air
DILUPBiCGStab:  Solving for Ux, Initial residual = 0.010129, Final residual = 0.000178555, No Iterations 1
DILUPBiCGStab:  Solving for Uy, Initial residual = 0.00643538, Final residual = 0.000112961, No Iterations 1
DILUPBiCGStab:  Solving for Uz, Initial residual = 0.0125811, Final residual = 0.000220526, No Iterations 1
DILUPBiCGStab:  Solving for h, Initial residual = 0.000113793, Final residual = 1.18517e-06, No Iterations 1
Min/max T:299.999 499.872
GAMG:  Solving for p_rgh, Initial residual = 0.0585077, Final residual = 0.000233479, No Iterations 3
time step continuity errors : sum local = 2.2583e-07, global = 1.189e-20, cumulative = 6.26035e-19
Min/max rho:1 1.15898

Solving for solid region sphere
DICPCG:  Solving for h, Initial residual = 0.00822865, Final residual = 5.8636e-05, No Iterations 2
Min/max T:499.86 499.995
ExecutionTime = 175.13 s  ClockTime = 175 s

Time = 0.054


Solving for fluid region air
DILUPBiCGStab:  Solving for Ux, Initial residual = 0.0100348, Final residual = 0.000177586, No Iterations 1
DILUPBiCGStab:  Solving for Uy, Initial residual = 0.00637726, Final residual = 0.000112513, No Iterations 1
DILUPBiCGStab:  Solving for Uz, Initial residual = 0.0124837, Final residual = 0.000220214, No Iterations 1
DILUPBiCGStab:  Solving for h, Initial residual = 0.000111868, Final residual = 1.16989e-06, No Iterations 1
Min/max T:299.999 499.872
GAMG:  Solving for p_rgh, Initial residual = 0.0575804, Final residual = 0.000228473, No Iterations 3
time step continuity errors : sum local = 2.18021e-07, global = 8.89941e-22, cumulative = 6.26925e-19
Min/max rho:1 1.15898

Solving for solid region sphere
DICPCG:  Solving for h, Initial residual = 0.0081726, Final residual = 5.78139e-05, No Iterations 2
Min/max T:499.86 499.994
ExecutionTime = 178.06 s  ClockTime = 178 s

Time = 0.055


Solving for fluid region air
DILUPBiCGStab:  Solving for Ux, Initial residual = 0.00994438, Final residual = 0.000176684, No Iterations 1
DILUPBiCGStab:  Solving for Uy, Initial residual = 0.00632375, Final residual = 0.000112105, No Iterations 1
DILUPBiCGStab:  Solving for Uz, Initial residual = 0.0123944, Final residual = 0.000220093, No Iterations 1
DILUPBiCGStab:  Solving for h, Initial residual = 0.000110021, Final residual = 1.15505e-06, No Iterations 1
Min/max T:299.999 499.872
GAMG:  Solving for p_rgh, Initial residual = 0.0570497, Final residual = 0.00022337, No Iterations 3
time step continuity errors : sum local = 2.10496e-07, global = -4.91621e-22, cumulative = 6.26433e-19
Min/max rho:1 1.15898

Solving for solid region sphere
DICPCG:  Solving for h, Initial residual = 0.00811947, Final residual = 5.70366e-05, No Iterations 2
Min/max T:499.86 499.994
ExecutionTime = 181.12 s  ClockTime = 181 s

Time = 0.056


Solving for fluid region air
DILUPBiCGStab:  Solving for Ux, Initial residual = 0.00985553, Final residual = 0.000175917, No Iterations 1
DILUPBiCGStab:  Solving for Uy, Initial residual = 0.006274, Final residual = 0.000111733, No Iterations 1
DILUPBiCGStab:  Solving for Uz, Initial residual = 0.0123188, Final residual = 0.000220239, No Iterations 1
DILUPBiCGStab:  Solving for h, Initial residual = 0.000108248, Final residual = 1.14065e-06, No Iterations 1
Min/max T:299.999 499.872
GAMG:  Solving for p_rgh, Initial residual = 0.0567628, Final residual = 0.000216693, No Iterations 3
time step continuity errors : sum local = 2.01625e-07, global = -6.90423e-21, cumulative = 6.19529e-19
Min/max rho:1 1.15898

Solving for solid region sphere
DICPCG:  Solving for h, Initial residual = 0.00806907, Final residual = 5.62954e-05, No Iterations 2
Min/max T:499.86 499.993
ExecutionTime = 184.29 s  ClockTime = 184 s

Time = 0.057


Solving for fluid region air
DILUPBiCGStab:  Solving for Ux, Initial residual = 0.00976761, Final residual = 0.000175144, No Iterations 1
DILUPBiCGStab:  Solving for Uy, Initial residual = 0.00622921, Final residual = 0.000111402, No Iterations 1
DILUPBiCGStab:  Solving for Uz, Initial residual = 0.0122525, Final residual = 0.000220585, No Iterations 1
DILUPBiCGStab:  Solving for h, Initial residual = 0.000106544, Final residual = 1.12661e-06, No Iterations 1
Min/max T:299.999 499.871
GAMG:  Solving for p_rgh, Initial residual = 0.0568791, Final residual = 0.0002141, No Iterations 3
time step continuity errors : sum local = 1.96572e-07, global = 1.54651e-20, cumulative = 6.34994e-19
Min/max rho:1 1.15898

Solving for solid region sphere
DICPCG:  Solving for h, Initial residual = 0.00802122, Final residual = 5.55876e-05, No Iterations 2
Min/max T:499.86 499.993
ExecutionTime = 187.5 s  ClockTime = 188 s

Time = 0.058


Solving for fluid region air
DILUPBiCGStab:  Solving for Ux, Initial residual = 0.00968212, Final residual = 0.000174333, No Iterations 1
DILUPBiCGStab:  Solving for Uy, Initial residual = 0.00619106, Final residual = 0.000111136, No Iterations 1
DILUPBiCGStab:  Solving for Uz, Initial residual = 0.012189, Final residual = 0.000221041, No Iterations 1
DILUPBiCGStab:  Solving for h, Initial residual = 0.000104903, Final residual = 1.11293e-06, No Iterations 1
Min/max T:299.999 499.871
GAMG:  Solving for p_rgh, Initial residual = 0.0565425, Final residual = 0.00021123, No Iterations 3
time step continuity errors : sum local = 1.91411e-07, global = 2.56621e-21, cumulative = 6.3756e-19
Min/max rho:1 1.15898

Solving for solid region sphere
DICPCG:  Solving for h, Initial residual = 0.00797581, Final residual = 5.49148e-05, No Iterations 2
Min/max T:499.86 499.992
ExecutionTime = 190.72 s  ClockTime = 191 s

Time = 0.059


Solving for fluid region air
DILUPBiCGStab:  Solving for Ux, Initial residual = 0.00959735, Final residual = 0.000173472, No Iterations 1
DILUPBiCGStab:  Solving for Uy, Initial residual = 0.00615587, Final residual = 0.000110937, No Iterations 1
DILUPBiCGStab:  Solving for Uz, Initial residual = 0.0121205, Final residual = 0.000221526, No Iterations 1
DILUPBiCGStab:  Solving for h, Initial residual = 0.000103321, Final residual = 1.09957e-06, No Iterations 1
Min/max T:299.999 499.871
GAMG:  Solving for p_rgh, Initial residual = 0.0554184, Final residual = 0.000213099, No Iterations 3
time step continuity errors : sum local = 1.90212e-07, global = 5.58058e-21, cumulative = 6.43141e-19
Min/max rho:1 1.15898

Solving for solid region sphere
DICPCG:  Solving for h, Initial residual = 0.00793273, Final residual = 5.42754e-05, No Iterations 2
Min/max T:499.86 499.992
ExecutionTime = 193.9 s  ClockTime = 194 s

Time = 0.06


Solving for fluid region air
DILUPBiCGStab:  Solving for Ux, Initial residual = 0.00950977, Final residual = 0.000172521, No Iterations 1
DILUPBiCGStab:  Solving for Uy, Initial residual = 0.00611848, Final residual = 0.000110732, No Iterations 1
DILUPBiCGStab:  Solving for Uz, Initial residual = 0.0120414, Final residual = 0.000221602, No Iterations 1
DILUPBiCGStab:  Solving for h, Initial residual = 0.000101796, Final residual = 1.08657e-06, No Iterations 1
Min/max T:299.999 499.871
GAMG:  Solving for p_rgh, Initial residual = 0.0552566, Final residual = 0.000217398, No Iterations 3
time step continuity errors : sum local = 1.91298e-07, global = 4.76733e-21, cumulative = 6.47908e-19
Min/max rho:1 1.15898

Solving for solid region sphere
DICPCG:  Solving for h, Initial residual = 0.00789185, Final residual = 5.36688e-05, No Iterations 2
Min/max T:499.86 499.992
ExecutionTime = 197.12 s  ClockTime = 197 s

Time = 0.061


Solving for fluid region air
DILUPBiCGStab:  Solving for Ux, Initial residual = 0.00942366, Final residual = 0.000171619, No Iterations 1
DILUPBiCGStab:  Solving for Uy, Initial residual = 0.00608063, Final residual = 0.000110541, No Iterations 1
DILUPBiCGStab:  Solving for Uz, Initial residual = 0.0119654, Final residual = 0.000221718, No Iterations 1
DILUPBiCGStab:  Solving for h, Initial residual = 0.000100326, Final residual = 1.07394e-06, No Iterations 1
Min/max T:299.999 499.871
GAMG:  Solving for p_rgh, Initial residual = 0.0547156, Final residual = 0.000212766, No Iterations 3
time step continuity errors : sum local = 1.85019e-07, global = -5.38403e-22, cumulative = 6.4737e-19
Min/max rho:1 1.15898

Solving for solid region sphere
DICPCG:  Solving for h, Initial residual = 0.00785305, Final residual = 5.30953e-05, No Iterations 2
Min/max T:499.86 499.991
ExecutionTime = 200.28 s  ClockTime = 200 s

Time = 0.062


Solving for fluid region air
DILUPBiCGStab:  Solving for Ux, Initial residual = 0.00933638, Final residual = 0.000170775, No Iterations 1
DILUPBiCGStab:  Solving for Uy, Initial residual = 0.00604645, Final residual = 0.000110371, No Iterations 1
DILUPBiCGStab:  Solving for Uz, Initial residual = 0.0118959, Final residual = 0.000221812, No Iterations 1
DILUPBiCGStab:  Solving for h, Initial residual = 9.89067e-05, Final residual = 1.06166e-06, No Iterations 1
Min/max T:299.999 499.871
GAMG:  Solving for p_rgh, Initial residual = 0.0540637, Final residual = 0.000207336, No Iterations 3
time step continuity errors : sum local = 1.78124e-07, global = -9.34517e-21, cumulative = 6.38025e-19
Min/max rho:1 1.15898

Solving for solid region sphere
DICPCG:  Solving for h, Initial residual = 0.00781625, Final residual = 5.25476e-05, No Iterations 2
Min/max T:499.86 499.991
ExecutionTime = 203.56 s  ClockTime = 204 s

Time = 0.063


Solving for fluid region air
DILUPBiCGStab:  Solving for Ux, Initial residual = 0.00924981, Final residual = 0.000169954, No Iterations 1
DILUPBiCGStab:  Solving for Uy, Initial residual = 0.00601432, Final residual = 0.000110213, No Iterations 1
DILUPBiCGStab:  Solving for Uz, Initial residual = 0.0118314, Final residual = 0.000221824, No Iterations 1
DILUPBiCGStab:  Solving for h, Initial residual = 9.75368e-05, Final residual = 1.04968e-06, No Iterations 1
Min/max T:299.999 499.871
GAMG:  Solving for p_rgh, Initial residual = 0.0536495, Final residual = 0.000203007, No Iterations 3
time step continuity errors : sum local = 1.722e-07, global = -9.99809e-21, cumulative = 6.28026e-19
Min/max rho:1 1.15898

Solving for solid region sphere
DICPCG:  Solving for h, Initial residual = 0.00778142, Final residual = 5.20237e-05, No Iterations 2
Min/max T:499.86 499.99
ExecutionTime = 206.8 s  ClockTime = 207 s

Time = 0.064


Solving for fluid region air
DILUPBiCGStab:  Solving for Ux, Initial residual = 0.00916736, Final residual = 0.000169237, No Iterations 1
DILUPBiCGStab:  Solving for Uy, Initial residual = 0.00598371, Final residual = 0.000110091, No Iterations 1
DILUPBiCGStab:  Solving for Uz, Initial residual = 0.0117707, Final residual = 0.000221853, No Iterations 1
DILUPBiCGStab:  Solving for h, Initial residual = 9.62152e-05, Final residual = 1.03801e-06, No Iterations 1
Min/max T:299.999 499.871
GAMG:  Solving for p_rgh, Initial residual = 0.0534329, Final residual = 0.000200335, No Iterations 3
time step continuity errors : sum local = 1.67863e-07, global = -3.49711e-21, cumulative = 6.24529e-19
Min/max rho:1 1.15898

Solving for solid region sphere
DICPCG:  Solving for h, Initial residual = 0.00774844, Final residual = 5.1523e-05, No Iterations 2
Min/max T:499.86 499.989
ExecutionTime = 210.02 s  ClockTime = 210 s

Time = 0.065


Solving for fluid region air
DILUPBiCGStab:  Solving for Ux, Initial residual = 0.00908753, Final residual = 0.000168506, No Iterations 1
DILUPBiCGStab:  Solving for Uy, Initial residual = 0.0059531, Final residual = 0.000109957, No Iterations 1
DILUPBiCGStab:  Solving for Uz, Initial residual = 0.0117132, Final residual = 0.000221957, No Iterations 1
DILUPBiCGStab:  Solving for h, Initial residual = 9.49388e-05, Final residual = 1.02664e-06, No Iterations 1
Min/max T:299.999 499.871
GAMG:  Solving for p_rgh, Initial residual = 0.0533682, Final residual = 0.000200557, No Iterations 3
time step continuity errors : sum local = 1.66023e-07, global = 4.53095e-21, cumulative = 6.2906e-19
Min/max rho:1 1.15898

Solving for solid region sphere
DICPCG:  Solving for h, Initial residual = 0.00771727, Final residual = 5.10432e-05, No Iterations 2
Min/max T:499.86 499.989
ExecutionTime = 212.94 s  ClockTime = 213 s

Time = 0.066


Solving for fluid region air
DILUPBiCGStab:  Solving for Ux, Initial residual = 0.00900995, Final residual = 0.000167794, No Iterations 1
DILUPBiCGStab:  Solving for Uy, Initial residual = 0.00592258, Final residual = 0.000109825, No Iterations 1
DILUPBiCGStab:  Solving for Uz, Initial residual = 0.0116636, Final residual = 0.000222144, No Iterations 1
DILUPBiCGStab:  Solving for h, Initial residual = 9.37062e-05, Final residual = 1.01561e-06, No Iterations 1
Min/max T:299.999 499.871
GAMG:  Solving for p_rgh, Initial residual = 0.053269, Final residual = 0.000201626, No Iterations 3
time step continuity errors : sum local = 1.64941e-07, global = 7.50848e-21, cumulative = 6.36569e-19
Min/max rho:1 1.15898

Solving for solid region sphere
DICPCG:  Solving for h, Initial residual = 0.00768781, Final residual = 5.05833e-05, No Iterations 2
Min/max T:499.86 499.988
ExecutionTime = 216 s  ClockTime = 216 s

Time = 0.067


Solving for fluid region air
DILUPBiCGStab:  Solving for Ux, Initial residual = 0.00893528, Final residual = 0.000167145, No Iterations 1
DILUPBiCGStab:  Solving for Uy, Initial residual = 0.00589234, Final residual = 0.000109698, No Iterations 1
DILUPBiCGStab:  Solving for Uz, Initial residual = 0.0116197, Final residual = 0.000222356, No Iterations 1
DILUPBiCGStab:  Solving for h, Initial residual = 9.2516e-05, Final residual = 1.0049e-06, No Iterations 1
Min/max T:299.999 499.871
GAMG:  Solving for p_rgh, Initial residual = 0.0531079, Final residual = 0.000203489, No Iterations 3
time step continuity errors : sum local = 1.64386e-07, global = 3.90602e-21, cumulative = 6.40475e-19
Min/max rho:1 1.15898

Solving for solid region sphere
DICPCG:  Solving for h, Initial residual = 0.00765998, Final residual = 5.01437e-05, No Iterations 2
Min/max T:499.86 499.988
ExecutionTime = 219.19 s  ClockTime = 219 s

Time = 0.068


Solving for fluid region air
DILUPBiCGStab:  Solving for Ux, Initial residual = 0.00886334, Final residual = 0.000166551, No Iterations 1
DILUPBiCGStab:  Solving for Uy, Initial residual = 0.00586189, Final residual = 0.000109572, No Iterations 1
DILUPBiCGStab:  Solving for Uz, Initial residual = 0.0115788, Final residual = 0.000222641, No Iterations 1
DILUPBiCGStab:  Solving for h, Initial residual = 9.13649e-05, Final residual = 9.94501e-07, No Iterations 1
Min/max T:299.999 499.871
GAMG:  Solving for p_rgh, Initial residual = 0.0526153, Final residual = 0.000206403, No Iterations 3
time step continuity errors : sum local = 1.64517e-07, global = 9.71115e-21, cumulative = 6.50186e-19
Min/max rho:1 1.15898

Solving for solid region sphere
DICPCG:  Solving for h, Initial residual = 0.00763376, Final residual = 4.97241e-05, No Iterations 2
Min/max T:499.86 499.987
ExecutionTime = 222.42 s  ClockTime = 222 s

Time = 0.069


Solving for fluid region air
DILUPBiCGStab:  Solving for Ux, Initial residual = 0.00879438, Final residual = 0.000166016, No Iterations 1
DILUPBiCGStab:  Solving for Uy, Initial residual = 0.0058325, Final residual = 0.000109441, No Iterations 1
DILUPBiCGStab:  Solving for Uz, Initial residual = 0.0115406, Final residual = 0.000222907, No Iterations 1
DILUPBiCGStab:  Solving for h, Initial residual = 9.0252e-05, Final residual = 9.84407e-07, No Iterations 1
Min/max T:299.999 499.871
GAMG:  Solving for p_rgh, Initial residual = 0.0520818, Final residual = 0.000209854, No Iterations 3
time step continuity errors : sum local = 1.64963e-07, global = -9.99132e-21, cumulative = 6.40195e-19
Min/max rho:1 1.15898

Solving for solid region sphere
DICPCG:  Solving for h, Initial residual = 0.00760913, Final residual = 4.93217e-05, No Iterations 2
Min/max T:499.86 499.987
ExecutionTime = 225.59 s  ClockTime = 226 s

Time = 0.07


Solving for fluid region air
DILUPBiCGStab:  Solving for Ux, Initial residual = 0.00872698, Final residual = 0.000165551, No Iterations 1
DILUPBiCGStab:  Solving for Uy, Initial residual = 0.00580299, Final residual = 0.000109316, No Iterations 1
DILUPBiCGStab:  Solving for Uz, Initial residual = 0.011506, Final residual = 0.000223186, No Iterations 1
DILUPBiCGStab:  Solving for h, Initial residual = 8.91755e-05, Final residual = 9.74586e-07, No Iterations 1
Min/max T:299.999 499.871
GAMG:  Solving for p_rgh, Initial residual = 0.0519688, Final residual = 0.000214554, No Iterations 3
time step continuity errors : sum local = 1.66382e-07, global = 2.3373e-21, cumulative = 6.42532e-19
Min/max rho:1 1.15898

Solving for solid region sphere
DICPCG:  Solving for h, Initial residual = 0.00758601, Final residual = 4.8936e-05, No Iterations 2
Min/max T:499.859 499.986
ExecutionTime = 228.86 s  ClockTime = 229 s

Time = 0.071


Solving for fluid region air
DILUPBiCGStab:  Solving for Ux, Initial residual = 0.0086626, Final residual = 0.000165111, No Iterations 1
DILUPBiCGStab:  Solving for Uy, Initial residual = 0.00577291, Final residual = 0.000109173, No Iterations 1
DILUPBiCGStab:  Solving for Uz, Initial residual = 0.0114771, Final residual = 0.000223441, No Iterations 1
DILUPBiCGStab:  Solving for h, Initial residual = 8.8133e-05, Final residual = 9.64996e-07, No Iterations 1
Min/max T:299.999 499.871
GAMG:  Solving for p_rgh, Initial residual = 0.0518939, Final residual = 0.000221273, No Iterations 3
time step continuity errors : sum local = 1.69342e-07, global = 4.33108e-21, cumulative = 6.46863e-19
Min/max rho:1 1.15898

Solving for solid region sphere
DICPCG:  Solving for h, Initial residual = 0.00756431, Final residual = 4.85667e-05, No Iterations 2
Min/max T:499.859 499.986
ExecutionTime = 232 s  ClockTime = 232 s

Time = 0.072


Solving for fluid region air
DILUPBiCGStab:  Solving for Ux, Initial residual = 0.00860005, Final residual = 0.000164694, No Iterations 1
DILUPBiCGStab:  Solving for Uy, Initial residual = 0.00574168, Final residual = 0.000109037, No Iterations 1
DILUPBiCGStab:  Solving for Uz, Initial residual = 0.0114524, Final residual = 0.000223713, No Iterations 1
DILUPBiCGStab:  Solving for h, Initial residual = 8.71243e-05, Final residual = 9.55656e-07, No Iterations 1
Min/max T:299.999 499.871
GAMG:  Solving for p_rgh, Initial residual = 0.0516269, Final residual = 0.000226862, No Iterations 3
time step continuity errors : sum local = 1.71387e-07, global = 2.76073e-21, cumulative = 6.49624e-19
Min/max rho:1 1.15898

Solving for solid region sphere
DICPCG:  Solving for h, Initial residual = 0.00754399, Final residual = 4.82144e-05, No Iterations 2
Min/max T:499.859 499.985
ExecutionTime = 234.9 s  ClockTime = 235 s

Time = 0.073


Solving for fluid region air
DILUPBiCGStab:  Solving for Ux, Initial residual = 0.00853959, Final residual = 0.000164315, No Iterations 1
DILUPBiCGStab:  Solving for Uy, Initial residual = 0.00571046, Final residual = 0.000108912, No Iterations 1
DILUPBiCGStab:  Solving for Uz, Initial residual = 0.0114338, Final residual = 0.000224005, No Iterations 1
DILUPBiCGStab:  Solving for h, Initial residual = 8.61485e-05, Final residual = 9.46594e-07, No Iterations 1
Min/max T:299.999 499.871
GAMG:  Solving for p_rgh, Initial residual = 0.0511426, Final residual = 0.000231915, No Iterations 3
time step continuity errors : sum local = 1.72971e-07, global = 1.28918e-20, cumulative = 6.62516e-19
Min/max rho:1 1.15898

Solving for solid region sphere
DICPCG:  Solving for h, Initial residual = 0.007525, Final residual = 4.78795e-05, No Iterations 2
Min/max T:499.859 499.984
ExecutionTime = 237.81 s  ClockTime = 238 s

Time = 0.074


Solving for fluid region air
DILUPBiCGStab:  Solving for Ux, Initial residual = 0.00848212, Final residual = 0.000163969, No Iterations 1
DILUPBiCGStab:  Solving for Uy, Initial residual = 0.00567887, Final residual = 0.000108753, No Iterations 1
DILUPBiCGStab:  Solving for Uz, Initial residual = 0.0114221, Final residual = 0.000224382, No Iterations 1
DILUPBiCGStab:  Solving for h, Initial residual = 8.52041e-05, Final residual = 9.37778e-07, No Iterations 1
Min/max T:299.999 499.871
GAMG:  Solving for p_rgh, Initial residual = 0.0508236, Final residual = 0.000237371, No Iterations 3
time step continuity errors : sum local = 1.74753e-07, global = -3.97477e-22, cumulative = 6.62118e-19
Min/max rho:1 1.15898

Solving for solid region sphere
DICPCG:  Solving for h, Initial residual = 0.00750725, Final residual = 4.75594e-05, No Iterations 2
Min/max T:499.859 499.984
ExecutionTime = 241.03 s  ClockTime = 241 s

Time = 0.075


Solving for fluid region air
DILUPBiCGStab:  Solving for Ux, Initial residual = 0.00842836, Final residual = 0.000163583, No Iterations 1
DILUPBiCGStab:  Solving for Uy, Initial residual = 0.00564565, Final residual = 0.000108592, No Iterations 1
DILUPBiCGStab:  Solving for Uz, Initial residual = 0.0114164, Final residual = 0.000224837, No Iterations 1
DILUPBiCGStab:  Solving for h, Initial residual = 8.42894e-05, Final residual = 9.29211e-07, No Iterations 1
Min/max T:299.999 499.871
GAMG:  Solving for p_rgh, Initial residual = 0.050664, Final residual = 0.000241558, No Iterations 3
time step continuity errors : sum local = 1.75453e-07, global = -7.97783e-22, cumulative = 6.6132e-19
Min/max rho:1 1.15898

Solving for solid region sphere
DICPCG:  Solving for h, Initial residual = 0.00749069, Final residual = 4.7254e-05, No Iterations 2
Min/max T:499.859 499.983
ExecutionTime = 244.2 s  ClockTime = 244 s

Time = 0.076


Solving for fluid region air
DILUPBiCGStab:  Solving for Ux, Initial residual = 0.00837754, Final residual = 0.000163155, No Iterations 1
DILUPBiCGStab:  Solving for Uy, Initial residual = 0.00561169, Final residual = 0.000108402, No Iterations 1
DILUPBiCGStab:  Solving for Uz, Initial residual = 0.0114188, Final residual = 0.000225326, No Iterations 1
DILUPBiCGStab:  Solving for h, Initial residual = 8.34036e-05, Final residual = 9.20875e-07, No Iterations 1
Min/max T:299.999 499.871
GAMG:  Solving for p_rgh, Initial residual = 0.0505686, Final residual = 0.000245566, No Iterations 3
time step continuity errors : sum local = 1.75855e-07, global = 5.9294e-21, cumulative = 6.6725e-19
Min/max rho:1 1.15898

Solving for solid region sphere
DICPCG:  Solving for h, Initial residual = 0.00747529, Final residual = 4.69626e-05, No Iterations 2
Min/max T:499.859 499.982
ExecutionTime = 247.64 s  ClockTime = 248 s

Time = 0.077


Solving for fluid region air
DILUPBiCGStab:  Solving for Ux, Initial residual = 0.00833014, Final residual = 0.00016278, No Iterations 1
DILUPBiCGStab:  Solving for Uy, Initial residual = 0.00557668, Final residual = 0.000108196, No Iterations 1
DILUPBiCGStab:  Solving for Uz, Initial residual = 0.011426, Final residual = 0.000225813, No Iterations 1
DILUPBiCGStab:  Solving for h, Initial residual = 8.25481e-05, Final residual = 9.12802e-07, No Iterations 1
Min/max T:299.999 499.871
GAMG:  Solving for p_rgh, Initial residual = 0.0504461, Final residual = 0.000249924, No Iterations 3
time step continuity errors : sum local = 1.76486e-07, global = -4.95769e-21, cumulative = 6.62292e-19
Min/max rho:1 1.15898

Solving for solid region sphere
DICPCG:  Solving for h, Initial residual = 0.00746102, Final residual = 4.66837e-05, No Iterations 2
Min/max T:499.859 499.982
ExecutionTime = 251.2 s  ClockTime = 251 s

Time = 0.078


Solving for fluid region air
DILUPBiCGStab:  Solving for Ux, Initial residual = 0.00828684, Final residual = 0.000162439, No Iterations 1
DILUPBiCGStab:  Solving for Uy, Initial residual = 0.00554115, Final residual = 0.000107958, No Iterations 1
DILUPBiCGStab:  Solving for Uz, Initial residual = 0.0114384, Final residual = 0.000226321, No Iterations 1
DILUPBiCGStab:  Solving for h, Initial residual = 8.17219e-05, Final residual = 9.04983e-07, No Iterations 1
Min/max T:299.999 499.871
GAMG:  Solving for p_rgh, Initial residual = 0.0503037, Final residual = 0.000253619, No Iterations 3
time step continuity errors : sum local = 1.76674e-07, global = 4.40131e-21, cumulative = 6.66693e-19
Min/max rho:1 1.15898

Solving for solid region sphere
DICPCG:  Solving for h, Initial residual = 0.00744781, Final residual = 4.64168e-05, No Iterations 2
Min/max T:499.859 499.981
ExecutionTime = 254.64 s  ClockTime = 255 s

Time = 0.079


Solving for fluid region air
DILUPBiCGStab:  Solving for Ux, Initial residual = 0.0082484, Final residual = 0.000162104, No Iterations 1
DILUPBiCGStab:  Solving for Uy, Initial residual = 0.00550515, Final residual = 0.00010769, No Iterations 1
DILUPBiCGStab:  Solving for Uz, Initial residual = 0.011459, Final residual = 0.000226845, No Iterations 1
DILUPBiCGStab:  Solving for h, Initial residual = 8.0923e-05, Final residual = 8.97418e-07, No Iterations 1
Min/max T:299.999 499.871
GAMG:  Solving for p_rgh, Initial residual = 0.0498325, Final residual = 0.00025787, No Iterations 3
time step continuity errors : sum local = 1.77173e-07, global = 6.91905e-21, cumulative = 6.73612e-19
Min/max rho:1 1.15898

Solving for solid region sphere
DICPCG:  Solving for h, Initial residual = 0.00743563, Final residual = 4.61611e-05, No Iterations 2
Min/max T:499.859 499.981
ExecutionTime = 257.89 s  ClockTime = 258 s

Time = 0.08


Solving for fluid region air
DILUPBiCGStab:  Solving for Ux, Initial residual = 0.00821452, Final residual = 0.000161818, No Iterations 1
DILUPBiCGStab:  Solving for Uy, Initial residual = 0.00546898, Final residual = 0.000107423, No Iterations 1
DILUPBiCGStab:  Solving for Uz, Initial residual = 0.0114858, Final residual = 0.000227439, No Iterations 1
DILUPBiCGStab:  Solving for h, Initial residual = 8.01509e-05, Final residual = 8.90084e-07, No Iterations 1
Min/max T:299.999 499.871
GAMG:  Solving for p_rgh, Initial residual = 0.0494038, Final residual = 0.00026431, No Iterations 3
time step continuity errors : sum local = 1.79101e-07, global = 8.05383e-22, cumulative = 6.74418e-19
Min/max rho:1 1.15898

Solving for solid region sphere
DICPCG:  Solving for h, Initial residual = 0.00742444, Final residual = 4.59164e-05, No Iterations 2
Min/max T:499.859 499.98
ExecutionTime = 261.05 s  ClockTime = 261 s

Time = 0.081


Solving for fluid region air
DILUPBiCGStab:  Solving for Ux, Initial residual = 0.00818494, Final residual = 0.000161549, No Iterations 1
DILUPBiCGStab:  Solving for Uy, Initial residual = 0.00543298, Final residual = 0.000107141, No Iterations 1
DILUPBiCGStab:  Solving for Uz, Initial residual = 0.011516, Final residual = 0.000228072, No Iterations 1
DILUPBiCGStab:  Solving for h, Initial residual = 7.94056e-05, Final residual = 8.82982e-07, No Iterations 1
Min/max T:299.999 499.871
GAMG:  Solving for p_rgh, Initial residual = 0.0489142, Final residual = 0.000269252, No Iterations 3
time step continuity errors : sum local = 1.80003e-07, global = 8.54922e-22, cumulative = 6.75273e-19
Min/max rho:1 1.15898

Solving for solid region sphere
DICPCG:  Solving for h, Initial residual = 0.00741419, Final residual = 4.56828e-05, No Iterations 2
Min/max T:499.858 499.979
ExecutionTime = 264.31 s  ClockTime = 264 s

Time = 0.082


Solving for fluid region air
DILUPBiCGStab:  Solving for Ux, Initial residual = 0.0081592, Final residual = 0.00016132, No Iterations 1
DILUPBiCGStab:  Solving for Uy, Initial residual = 0.00539674, Final residual = 0.000106836, No Iterations 1
DILUPBiCGStab:  Solving for Uz, Initial residual = 0.0115496, Final residual = 0.000228721, No Iterations 1
DILUPBiCGStab:  Solving for h, Initial residual = 7.8687e-05, Final residual = 8.76121e-07, No Iterations 1
Min/max T:299.999 499.87
GAMG:  Solving for p_rgh, Initial residual = 0.0486607, Final residual = 0.00027478, No Iterations 3
time step continuity errors : sum local = 1.81276e-07, global = 2.10489e-20, cumulative = 6.96322e-19
Min/max rho:1 1.15898

Solving for solid region sphere
DICPCG:  Solving for h, Initial residual = 0.00740484, Final residual = 4.54595e-05, No Iterations 2
Min/max T:499.858 499.979
ExecutionTime = 267.52 s  ClockTime = 268 s

Time = 0.083


Solving for fluid region air
DILUPBiCGStab:  Solving for Ux, Initial residual = 0.00813815, Final residual = 0.000161149, No Iterations 1
DILUPBiCGStab:  Solving for Uy, Initial residual = 0.00536013, Final residual = 0.000106502, No Iterations 1
DILUPBiCGStab:  Solving for Uz, Initial residual = 0.011589, Final residual = 0.000229399, No Iterations 1
DILUPBiCGStab:  Solving for h, Initial residual = 7.79943e-05, Final residual = 8.69494e-07, No Iterations 1
Min/max T:299.999 499.87
GAMG:  Solving for p_rgh, Initial residual = 0.0483521, Final residual = 0.000279627, No Iterations 3
time step continuity errors : sum local = 1.82115e-07, global = -2.98865e-21, cumulative = 6.93333e-19
Min/max rho:1 1.15898

Solving for solid region sphere
DICPCG:  Solving for h, Initial residual = 0.00739637, Final residual = 4.5246e-05, No Iterations 2
Min/max T:499.858 499.978
ExecutionTime = 270.74 s  ClockTime = 271 s

Time = 0.084


Solving for fluid region air
DILUPBiCGStab:  Solving for Ux, Initial residual = 0.0081235, Final residual = 0.000161079, No Iterations 1
DILUPBiCGStab:  Solving for Uy, Initial residual = 0.0053237, Final residual = 0.000106138, No Iterations 1
DILUPBiCGStab:  Solving for Uz, Initial residual = 0.0116348, Final residual = 0.000230205, No Iterations 1
[...]
DILUPBiCGStab:  Solving for h, Initial residual = 0.000368085, Final residual = 6.28297e-06, No Iterations 1
Min/max T:300.012 499.713
GAMG:  Solving for p_rgh, Initial residual = 0.0415407, Final residual = 0.000404534, No Iterations 2
time step continuity errors : sum local = 8.0545e-07, global = -5.961e-22, cumulative = 7.81027e-19
Min/max rho:1 1.15894

Solving for solid region sphere
DICPCG:  Solving for h, Initial residual = 0.00594436, Final residual = 3.13032e-05, No Iterations 2
Min/max T:499.627 499.719
ExecutionTime = 5632.85 s  ClockTime = 5734 s

Time = 0.959


Solving for fluid region air
DILUPBiCGStab:  Solving for Ux, Initial residual = 0.00646327, Final residual = 0.000108122, No Iterations 1
DILUPBiCGStab:  Solving for Uy, Initial residual = 0.00418635, Final residual = 7.46477e-05, No Iterations 1
DILUPBiCGStab:  Solving for Uz, Initial residual = 0.00698601, Final residual = 0.000114922, No Iterations 1
DILUPBiCGStab:  Solving for h, Initial residual = 0.000367887, Final residual = 6.27978e-06, No Iterations 1
Min/max T:300.012 499.712
GAMG:  Solving for p_rgh, Initial residual = 0.0423137, Final residual = 9.9414e-05, No Iterations 3
time step continuity errors : sum local = 1.99164e-07, global = -5.04476e-22, cumulative = 7.80523e-19
Min/max rho:1 1.15894

Solving for solid region sphere
DICPCG:  Solving for h, Initial residual = 0.00594697, Final residual = 3.13172e-05, No Iterations 2
Min/max T:499.627 499.719
ExecutionTime = 5639.93 s  ClockTime = 5742 s

Time = 0.96


Solving for fluid region air
DILUPBiCGStab:  Solving for Ux, Initial residual = 0.00645308, Final residual = 0.000108073, No Iterations 1
DILUPBiCGStab:  Solving for Uy, Initial residual = 0.00416149, Final residual = 7.42637e-05, No Iterations 1
DILUPBiCGStab:  Solving for Uz, Initial residual = 0.00693118, Final residual = 0.00011412, No Iterations 1
DILUPBiCGStab:  Solving for h, Initial residual = 0.000367783, Final residual = 6.27976e-06, No Iterations 1
Min/max T:300.012 499.712
GAMG:  Solving for p_rgh, Initial residual = 0.0427008, Final residual = 0.000394406, No Iterations 2
time step continuity errors : sum local = 7.8435e-07, global = -1.80337e-21, cumulative = 7.7872e-19
Min/max rho:1 1.15894

Solving for solid region sphere
DICPCG:  Solving for h, Initial residual = 0.00594958, Final residual = 3.13311e-05, No Iterations 2
Min/max T:499.626 499.718
ExecutionTime = 5646.53 s  ClockTime = 5748 s

Time = 0.961


Solving for fluid region air
DILUPBiCGStab:  Solving for Ux, Initial residual = 0.00647096, Final residual = 0.000108356, No Iterations 1
DILUPBiCGStab:  Solving for Uy, Initial residual = 0.00418067, Final residual = 7.4355e-05, No Iterations 1
DILUPBiCGStab:  Solving for Uz, Initial residual = 0.00701881, Final residual = 0.000115543, No Iterations 1
DILUPBiCGStab:  Solving for h, Initial residual = 0.000367613, Final residual = 6.28264e-06, No Iterations 1
Min/max T:300.012 499.712
GAMG:  Solving for p_rgh, Initial residual = 0.0429218, Final residual = 0.000101186, No Iterations 3
time step continuity errors : sum local = 2.01931e-07, global = 8.10737e-22, cumulative = 7.7953e-19
Min/max rho:1 1.15894

Solving for solid region sphere
DICPCG:  Solving for h, Initial residual = 0.00595219, Final residual = 3.1345e-05, No Iterations 2
Min/max T:499.626 499.718
ExecutionTime = 5653.22 s  ClockTime = 5755 s

Time = 0.962


Solving for fluid region air
DILUPBiCGStab:  Solving for Ux, Initial residual = 0.00644781, Final residual = 0.000107985, No Iterations 1
DILUPBiCGStab:  Solving for Uy, Initial residual = 0.00416106, Final residual = 7.40298e-05, No Iterations 1
DILUPBiCGStab:  Solving for Uz, Initial residual = 0.00697345, Final residual = 0.000115093, No Iterations 1
DILUPBiCGStab:  Solving for h, Initial residual = 0.000367654, Final residual = 6.28464e-06, No Iterations 1
Min/max T:300.012 499.712
GAMG:  Solving for p_rgh, Initial residual = 0.0426584, Final residual = 0.000101747, No Iterations 3
time step continuity errors : sum local = 2.02083e-07, global = -1.96607e-23, cumulative = 7.79511e-19
Min/max rho:1 1.15894

Solving for solid region sphere
DICPCG:  Solving for h, Initial residual = 0.00595479, Final residual = 3.13589e-05, No Iterations 2
Min/max T:499.626 499.718
ExecutionTime = 5659.55 s  ClockTime = 5762 s

Time = 0.963


Solving for fluid region air
DILUPBiCGStab:  Solving for Ux, Initial residual = 0.00644485, Final residual = 0.000107918, No Iterations 1
DILUPBiCGStab:  Solving for Uy, Initial residual = 0.00415884, Final residual = 7.38368e-05, No Iterations 1
DILUPBiCGStab:  Solving for Uz, Initial residual = 0.00699152, Final residual = 0.000115493, No Iterations 1
DILUPBiCGStab:  Solving for h, Initial residual = 0.000367557, Final residual = 6.28153e-06, No Iterations 1
Min/max T:300.012 499.712
GAMG:  Solving for p_rgh, Initial residual = 0.0423883, Final residual = 0.000104187, No Iterations 3
time step continuity errors : sum local = 2.07348e-07, global = -4.19337e-22, cumulative = 7.79091e-19
Min/max rho:1 1.15894

Solving for solid region sphere
DICPCG:  Solving for h, Initial residual = 0.0059574, Final residual = 3.13728e-05, No Iterations 2
Min/max T:499.626 499.718
ExecutionTime = 5666.28 s  ClockTime = 5769 s

Time = 0.964


Solving for fluid region air
DILUPBiCGStab:  Solving for Ux, Initial residual = 0.00644829, Final residual = 0.000107927, No Iterations 1
DILUPBiCGStab:  Solving for Uy, Initial residual = 0.00415577, Final residual = 7.36718e-05, No Iterations 1
DILUPBiCGStab:  Solving for Uz, Initial residual = 0.00700934, Final residual = 0.000115811, No Iterations 1
DILUPBiCGStab:  Solving for h, Initial residual = 0.000367432, Final residual = 6.27846e-06, No Iterations 1
Min/max T:300.012 499.711
GAMG:  Solving for p_rgh, Initial residual = 0.041814, Final residual = 0.000105824, No Iterations 3
time step continuity errors : sum local = 2.11984e-07, global = -3.86816e-22, cumulative = 7.78704e-19
Min/max rho:1 1.15894

Solving for solid region sphere
DICPCG:  Solving for h, Initial residual = 0.00595999, Final residual = 3.13867e-05, No Iterations 2
Min/max T:499.626 499.717
ExecutionTime = 5672.9 s  ClockTime = 5776 s

Time = 0.965


Solving for fluid region air
DILUPBiCGStab:  Solving for Ux, Initial residual = 0.00645906, Final residual = 0.000108089, No Iterations 1
DILUPBiCGStab:  Solving for Uy, Initial residual = 0.00414849, Final residual = 7.35033e-05, No Iterations 1
DILUPBiCGStab:  Solving for Uz, Initial residual = 0.00702413, Final residual = 0.000116134, No Iterations 1
DILUPBiCGStab:  Solving for h, Initial residual = 0.000367306, Final residual = 6.27885e-06, No Iterations 1
Min/max T:300.012 499.711
GAMG:  Solving for p_rgh, Initial residual = 0.0416465, Final residual = 0.000105489, No Iterations 3
time step continuity errors : sum local = 2.11948e-07, global = -4.68068e-22, cumulative = 7.78236e-19
Min/max rho:1 1.15894

Solving for solid region sphere
DICPCG:  Solving for h, Initial residual = 0.00596259, Final residual = 3.14005e-05, No Iterations 2
Min/max T:499.625 499.717
ExecutionTime = 5678.47 s  ClockTime = 5782 s

Time = 0.966


Solving for fluid region air
DILUPBiCGStab:  Solving for Ux, Initial residual = 0.00646441, Final residual = 0.000108317, No Iterations 1
DILUPBiCGStab:  Solving for Uy, Initial residual = 0.0041389, Final residual = 7.32848e-05, No Iterations 1
DILUPBiCGStab:  Solving for Uz, Initial residual = 0.00702864, Final residual = 0.000116375, No Iterations 1
DILUPBiCGStab:  Solving for h, Initial residual = 0.000367138, Final residual = 6.28388e-06, No Iterations 1
Min/max T:300.012 499.711
GAMG:  Solving for p_rgh, Initial residual = 0.0414716, Final residual = 0.000103096, No Iterations 3
time step continuity errors : sum local = 2.06302e-07, global = 1.1472e-22, cumulative = 7.78351e-19
Min/max rho:1 1.15894

Solving for solid region sphere
DICPCG:  Solving for h, Initial residual = 0.00596518, Final residual = 3.14144e-05, No Iterations 2
Min/max T:499.625 499.717
ExecutionTime = 5685.03 s  ClockTime = 5789 s

Time = 0.967


Solving for fluid region air
DILUPBiCGStab:  Solving for Ux, Initial residual = 0.00647043, Final residual = 0.000108416, No Iterations 1
DILUPBiCGStab:  Solving for Uy, Initial residual = 0.00412898, Final residual = 7.30747e-05, No Iterations 1
DILUPBiCGStab:  Solving for Uz, Initial residual = 0.00704004, Final residual = 0.000116554, No Iterations 1
DILUPBiCGStab:  Solving for h, Initial residual = 0.000366974, Final residual = 6.29061e-06, No Iterations 1
Min/max T:300.012 499.711
GAMG:  Solving for p_rgh, Initial residual = 0.0413725, Final residual = 0.000100155, No Iterations 3
time step continuity errors : sum local = 2.0218e-07, global = -3.2357e-22, cumulative = 7.78028e-19
Min/max rho:1 1.15894

Solving for solid region sphere
DICPCG:  Solving for h, Initial residual = 0.00596777, Final residual = 3.14282e-05, No Iterations 2
Min/max T:499.625 499.717
ExecutionTime = 5691.73 s  ClockTime = 5796 s

Time = 0.968


Solving for fluid region air
DILUPBiCGStab:  Solving for Ux, Initial residual = 0.00646915, Final residual = 0.000108492, No Iterations 1
DILUPBiCGStab:  Solving for Uy, Initial residual = 0.00412099, Final residual = 7.29064e-05, No Iterations 1
DILUPBiCGStab:  Solving for Uz, Initial residual = 0.00706304, Final residual = 0.000116811, No Iterations 1
DILUPBiCGStab:  Solving for h, Initial residual = 0.000366871, Final residual = 6.29695e-06, No Iterations 1
Min/max T:300.012 499.71
GAMG:  Solving for p_rgh, Initial residual = 0.0416618, Final residual = 9.75689e-05, No Iterations 3
time step continuity errors : sum local = 1.97495e-07, global = 3.43892e-22, cumulative = 7.78371e-19
Min/max rho:1 1.15894

Solving for solid region sphere
DICPCG:  Solving for h, Initial residual = 0.00597035, Final residual = 3.1442e-05, No Iterations 2
Min/max T:499.625 499.716
ExecutionTime = 5698.23 s  ClockTime = 5803 s

Time = 0.969


Solving for fluid region air
DILUPBiCGStab:  Solving for Ux, Initial residual = 0.00646585, Final residual = 0.000108375, No Iterations 1
DILUPBiCGStab:  Solving for Uy, Initial residual = 0.00411299, Final residual = 7.27083e-05, No Iterations 1
DILUPBiCGStab:  Solving for Uz, Initial residual = 0.00706905, Final residual = 0.00011703, No Iterations 1
DILUPBiCGStab:  Solving for h, Initial residual = 0.000366718, Final residual = 6.30196e-06, No Iterations 1
Min/max T:300.012 499.71
GAMG:  Solving for p_rgh, Initial residual = 0.0417332, Final residual = 0.00041089, No Iterations 2
time step continuity errors : sum local = 8.27895e-07, global = -1.21717e-21, cumulative = 7.77154e-19
Min/max rho:1 1.15894

Solving for solid region sphere
DICPCG:  Solving for h, Initial residual = 0.00597293, Final residual = 3.14558e-05, No Iterations 2
Min/max T:499.625 499.716
ExecutionTime = 5704.78 s  ClockTime = 5809 s

Time = 0.97


Solving for fluid region air
DILUPBiCGStab:  Solving for Ux, Initial residual = 0.00647414, Final residual = 0.00010839, No Iterations 1
DILUPBiCGStab:  Solving for Uy, Initial residual = 0.00412181, Final residual = 7.26394e-05, No Iterations 1
DILUPBiCGStab:  Solving for Uz, Initial residual = 0.00713115, Final residual = 0.000117939, No Iterations 1
DILUPBiCGStab:  Solving for h, Initial residual = 0.000366434, Final residual = 6.30416e-06, No Iterations 1
Min/max T:300.012 499.71
GAMG:  Solving for p_rgh, Initial residual = 0.0418946, Final residual = 0.000104641, No Iterations 3
time step continuity errors : sum local = 2.11189e-07, global = -1.01926e-21, cumulative = 7.76135e-19
Min/max rho:1 1.15894

Solving for solid region sphere
DICPCG:  Solving for h, Initial residual = 0.00597551, Final residual = 3.14696e-05, No Iterations 2
Min/max T:499.624 499.716
ExecutionTime = 5711.68 s  ClockTime = 5817 s

Time = 0.971


Solving for fluid region air
DILUPBiCGStab:  Solving for Ux, Initial residual = 0.00644901, Final residual = 0.0001079, No Iterations 1
DILUPBiCGStab:  Solving for Uy, Initial residual = 0.00408643, Final residual = 7.22261e-05, No Iterations 1
DILUPBiCGStab:  Solving for Uz, Initial residual = 0.00704114, Final residual = 0.000116855, No Iterations 1
DILUPBiCGStab:  Solving for h, Initial residual = 0.000366463, Final residual = 6.31001e-06, No Iterations 1
Min/max T:300.013 499.71
GAMG:  Solving for p_rgh, Initial residual = 0.0416146, Final residual = 0.000400765, No Iterations 2
time step continuity errors : sum local = 8.06996e-07, global = 1.8458e-21, cumulative = 7.77981e-19
Min/max rho:1 1.15894

Solving for solid region sphere
DICPCG:  Solving for h, Initial residual = 0.00597808, Final residual = 3.14834e-05, No Iterations 2
Min/max T:499.624 499.716
ExecutionTime = 5718.26 s  ClockTime = 5823 s

Time = 0.972


Solving for fluid region air
DILUPBiCGStab:  Solving for Ux, Initial residual = 0.00644783, Final residual = 0.000107647, No Iterations 1
DILUPBiCGStab:  Solving for Uy, Initial residual = 0.00409401, Final residual = 7.22111e-05, No Iterations 1
DILUPBiCGStab:  Solving for Uz, Initial residual = 0.0071048, Final residual = 0.000118042, No Iterations 1
DILUPBiCGStab:  Solving for h, Initial residual = 0.000366402, Final residual = 6.31853e-06, No Iterations 1
Min/max T:300.013 499.709
GAMG:  Solving for p_rgh, Initial residual = 0.041259, Final residual = 0.000100474, No Iterations 3
time step continuity errors : sum local = 2.03763e-07, global = 8.45828e-23, cumulative = 7.78065e-19
Min/max rho:1 1.15894

Solving for solid region sphere
DICPCG:  Solving for h, Initial residual = 0.00598065, Final residual = 3.14971e-05, No Iterations 2
Min/max T:499.624 499.716
ExecutionTime = 5724.89 s  ClockTime = 5831 s

Time = 0.973


Solving for fluid region air
DILUPBiCGStab:  Solving for Ux, Initial residual = 0.00644048, Final residual = 0.000107619, No Iterations 1
DILUPBiCGStab:  Solving for Uy, Initial residual = 0.00406858, Final residual = 7.19691e-05, No Iterations 1
DILUPBiCGStab:  Solving for Uz, Initial residual = 0.0070526, Final residual = 0.000117352, No Iterations 1
DILUPBiCGStab:  Solving for h, Initial residual = 0.000366366, Final residual = 6.32976e-06, No Iterations 1
Min/max T:300.013 499.709
GAMG:  Solving for p_rgh, Initial residual = 0.0411225, Final residual = 0.000386573, No Iterations 2
time step continuity errors : sum local = 7.80428e-07, global = 1.59025e-21, cumulative = 7.79656e-19
Min/max rho:1 1.15894

Solving for solid region sphere
DICPCG:  Solving for h, Initial residual = 0.00598322, Final residual = 3.15109e-05, No Iterations 2
Min/max T:499.624 499.715
ExecutionTime = 5730.75 s  ClockTime = 5836 s

Time = 0.974


Solving for fluid region air
DILUPBiCGStab:  Solving for Ux, Initial residual = 0.00642804, Final residual = 0.000107435, No Iterations 1
DILUPBiCGStab:  Solving for Uy, Initial residual = 0.00407907, Final residual = 7.19942e-05, No Iterations 1
DILUPBiCGStab:  Solving for Uz, Initial residual = 0.00711424, Final residual = 0.000118328, No Iterations 1
DILUPBiCGStab:  Solving for h, Initial residual = 0.000366161, Final residual = 6.33955e-06, No Iterations 1
Min/max T:300.013 499.709
GAMG:  Solving for p_rgh, Initial residual = 0.0408395, Final residual = 0.00010169, No Iterations 3
time step continuity errors : sum local = 2.05832e-07, global = -7.21224e-22, cumulative = 7.78934e-19
Min/max rho:1 1.15894

Solving for solid region sphere
DICPCG:  Solving for h, Initial residual = 0.00598578, Final residual = 3.15246e-05, No Iterations 2
Min/max T:499.624 499.715
ExecutionTime = 5737.69 s  ClockTime = 5843 s

Time = 0.975


Solving for fluid region air
DILUPBiCGStab:  Solving for Ux, Initial residual = 0.00640331, Final residual = 0.000107229, No Iterations 1
DILUPBiCGStab:  Solving for Uy, Initial residual = 0.00405022, Final residual = 7.16991e-05, No Iterations 1
DILUPBiCGStab:  Solving for Uz, Initial residual = 0.00704494, Final residual = 0.000117666, No Iterations 1
DILUPBiCGStab:  Solving for h, Initial residual = 0.000366152, Final residual = 6.34665e-06, No Iterations 1
Min/max T:300.013 499.709
GAMG:  Solving for p_rgh, Initial residual = 0.0406082, Final residual = 0.000380972, No Iterations 2
time step continuity errors : sum local = 7.71226e-07, global = -1.58898e-21, cumulative = 7.77345e-19
Min/max rho:1 1.15894

Solving for solid region sphere
DICPCG:  Solving for h, Initial residual = 0.00598834, Final residual = 3.15383e-05, No Iterations 2
Min/max T:499.623 499.715
ExecutionTime = 5744.22 s  ClockTime = 5850 s

Time = 0.976


Solving for fluid region air
DILUPBiCGStab:  Solving for Ux, Initial residual = 0.0063847, Final residual = 0.000106769, No Iterations 1
DILUPBiCGStab:  Solving for Uy, Initial residual = 0.00405853, Final residual = 7.16629e-05, No Iterations 1
DILUPBiCGStab:  Solving for Uz, Initial residual = 0.00711084, Final residual = 0.00011841, No Iterations 1
DILUPBiCGStab:  Solving for h, Initial residual = 0.000365973, Final residual = 6.35095e-06, No Iterations 1
Min/max T:300.013 499.708
GAMG:  Solving for p_rgh, Initial residual = 0.0402957, Final residual = 9.902e-05, No Iterations 3
time step continuity errors : sum local = 2.01886e-07, global = 3.98902e-22, cumulative = 7.77744e-19
Min/max rho:1 1.15894

Solving for solid region sphere
DICPCG:  Solving for h, Initial residual = 0.00599089, Final residual = 3.1552e-05, No Iterations 2
Min/max T:499.623 499.715
ExecutionTime = 5750.79 s  ClockTime = 5857 s

Time = 0.977


Solving for fluid region air
DILUPBiCGStab:  Solving for Ux, Initial residual = 0.00635044, Final residual = 0.00010642, No Iterations 1
DILUPBiCGStab:  Solving for Uy, Initial residual = 0.00402993, Final residual = 7.14332e-05, No Iterations 1
DILUPBiCGStab:  Solving for Uz, Initial residual = 0.00704375, Final residual = 0.000117624, No Iterations 1
DILUPBiCGStab:  Solving for h, Initial residual = 0.000365925, Final residual = 6.35839e-06, No Iterations 1
Min/max T:300.013 499.708
GAMG:  Solving for p_rgh, Initial residual = 0.0399544, Final residual = 0.00036849, No Iterations 2
time step continuity errors : sum local = 7.5217e-07, global = -1.91535e-22, cumulative = 7.77553e-19
Min/max rho:1 1.15894

Solving for solid region sphere
DICPCG:  Solving for h, Initial residual = 0.00599345, Final residual = 3.15657e-05, No Iterations 2
Min/max T:499.623 499.714
ExecutionTime = 5757.13 s  ClockTime = 5863 s

Time = 0.978


Solving for fluid region air
DILUPBiCGStab:  Solving for Ux, Initial residual = 0.00633246, Final residual = 0.00010595, No Iterations 1
DILUPBiCGStab:  Solving for Uy, Initial residual = 0.00403771, Final residual = 7.1488e-05, No Iterations 1
DILUPBiCGStab:  Solving for Uz, Initial residual = 0.00710822, Final residual = 0.000118487, No Iterations 1
DILUPBiCGStab:  Solving for h, Initial residual = 0.000365823, Final residual = 6.36742e-06, No Iterations 1
Min/max T:300.013 499.708
GAMG:  Solving for p_rgh, Initial residual = 0.0397183, Final residual = 0.000387573, No Iterations 2
time step continuity errors : sum local = 7.936e-07, global = 1.67764e-21, cumulative = 7.7923e-19
Min/max rho:1 1.15894

Solving for solid region sphere
DICPCG:  Solving for h, Initial residual = 0.005996, Final residual = 3.15794e-05, No Iterations 2
Min/max T:499.623 499.714
ExecutionTime = 5762.76 s  ClockTime = 5869 s

Time = 0.979


Solving for fluid region air
DILUPBiCGStab:  Solving for Ux, Initial residual = 0.00631435, Final residual = 0.000105598, No Iterations 1
DILUPBiCGStab:  Solving for Uy, Initial residual = 0.00402528, Final residual = 7.141e-05, No Iterations 1
DILUPBiCGStab:  Solving for Uz, Initial residual = 0.00710763, Final residual = 0.000118556, No Iterations 1
DILUPBiCGStab:  Solving for h, Initial residual = 0.000365751, Final residual = 6.38088e-06, No Iterations 1
Min/max T:300.013 499.708
GAMG:  Solving for p_rgh, Initial residual = 0.0395642, Final residual = 0.000392803, No Iterations 2
