/*---------------------------------------------------------------------------*\
| =========                 |                                                 |
| \\      /  F ield         | OpenFOAM: The Open Source CFD Toolbox           |
|  \\    /   O peration     | Version:  v1912                                 |
|   \\  /    A nd           | Website:  www.openfoam.com                      |
|    \\/     M anipulation  |                                                 |
\*---------------------------------------------------------------------------*/
Build  : _f3950763fe-20191219 OPENFOAM=1912
Arch   : "LSB;label=32;scalar=64"
Exec   : surfaceFeatureExtract
Date   : Jun 26 2020
Time   : 17:49:33
Host   : vipin-workstation
PID    : 9292
I/O    : uncollated
Case   : /home/vipin4948/Openfoam_anlaysis/sphere_in_air_Finemesh_proper_air_value
nProcs : 1
trapFpe: Floating point exception trapping enabled (FOAM_SIGFPE).
fileModificationChecking : Monitoring run-time modified files using timeStampMaster (fileModificationSkew 10)
allowSystemOperations : Allowing user-supplied system call operations

// * * * * * * * * * * * * * * * * * * * * * * * * * * * * * * * * * * * * * //
Create time


Note: Feature line extraction only valid on closed manifold surfaces

Reading surfaceFeatureExtractDict

Surfaces     : sphere_OpenFoam.stl
Output       : sphere_OpenFoam
Load options : offset
Write options: writeObj=yes writeVTK=off

Statistics:
Triangles    : 4450 in 1 region(s)
Vertices     : 2227
Bounding Box : (-0.015 -0.0149929 -0.015) (0.0149715 0.0149929 0.015)

Constructing feature set from included angle 150
Selecting edges based purely on geometric tests: no

Initial Feature set:
    points : 0
    edges  : 2
    of which
        region edges   : 0
        external edges : 0
        internal edges : 2

Final Feature set:
    points : 4
    of which
        convex             : 0
        concave            : 0
        mixed              : 0
        non-feature        : 4
    edges  : 2
    of which
        external edges     : 0
        internal edges     : 2
        flat edges         : 0
        open edges         : 0
        multiply connected : 0

Writing extendedFeatureEdgeMesh to "/home/vipin4948/Openfoam_anlaysis/sphere_in_air_Finemesh_proper_air_value/constant/extendedFeatureEdgeMesh/sphere_OpenFoam.extendedFeatureEdgeMesh"

Writing extendedEdgeMesh components to "/home/vipin4948/Openfoam_anlaysis/sphere_in_air_Finemesh_proper_air_value/constant/extendedFeatureEdgeMesh/sphere_OpenFoam"
Writing 0 convex feature points to "/home/vipin4948/Openfoam_anlaysis/sphere_in_air_Finemesh_proper_air_value/constant/extendedFeatureEdgeMesh/sphere_OpenFoam_convexFeaturePts.obj"
Writing 0 concave feature points to "/home/vipin4948/Openfoam_anlaysis/sphere_in_air_Finemesh_proper_air_value/constant/extendedFeatureEdgeMesh/sphere_OpenFoam_concaveFeaturePts.obj"
Writing 0 mixed feature points to "/home/vipin4948/Openfoam_anlaysis/sphere_in_air_Finemesh_proper_air_value/constant/extendedFeatureEdgeMesh/sphere_OpenFoam_mixedFeaturePts.obj"
Writing 0 mixed feature point structure to "/home/vipin4948/Openfoam_anlaysis/sphere_in_air_Finemesh_proper_air_value/constant/extendedFeatureEdgeMesh/sphere_OpenFoam_mixedFeaturePtsStructure.obj"
Writing 0 external edges to "/home/vipin4948/Openfoam_anlaysis/sphere_in_air_Finemesh_proper_air_value/constant/extendedFeatureEdgeMesh/sphere_OpenFoam_externalEdges.obj"
Writing 2 internal edges to "/home/vipin4948/Openfoam_anlaysis/sphere_in_air_Finemesh_proper_air_value/constant/extendedFeatureEdgeMesh/sphere_OpenFoam_internalEdges.obj"
Writing 0 flat edges to "/home/vipin4948/Openfoam_anlaysis/sphere_in_air_Finemesh_proper_air_value/constant/extendedFeatureEdgeMesh/sphere_OpenFoam_flatEdges.obj"
Writing 0 open edges to "/home/vipin4948/Openfoam_anlaysis/sphere_in_air_Finemesh_proper_air_value/constant/extendedFeatureEdgeMesh/sphere_OpenFoam_openEdges.obj"
Writing 0 multiple edges to "/home/vipin4948/Openfoam_anlaysis/sphere_in_air_Finemesh_proper_air_value/constant/extendedFeatureEdgeMesh/sphere_OpenFoam_multipleEdges.obj"
Writing 0 region edges to "/home/vipin4948/Openfoam_anlaysis/sphere_in_air_Finemesh_proper_air_value/constant/extendedFeatureEdgeMesh/sphere_OpenFoam_regionEdges.obj"
Writing 2 edge directions to "/home/vipin4948/Openfoam_anlaysis/sphere_in_air_Finemesh_proper_air_value/constant/extendedFeatureEdgeMesh/sphere_OpenFoam_edgeDirections.obj"

Writing featureEdgeMesh to "/home/vipin4948/Openfoam_anlaysis/sphere_in_air_Finemesh_proper_air_value/constant/triSurface/sphere_OpenFoam.eMesh"
ExecutionTime = 0.08 s  ClockTime = 0 s

End

