/*---------------------------------------------------------------------------*\
| =========                 |                                                 |
| \\      /  F ield         | OpenFOAM: The Open Source CFD Toolbox           |
|  \\    /   O peration     | Version:  v1912                                 |
|   \\  /    A nd           | Website:  www.openfoam.com                      |
|    \\/     M anipulation  |                                                 |
\*---------------------------------------------------------------------------*/
Build  : _f3950763fe-20191219 OPENFOAM=1912
Arch   : "LSB;label=32;scalar=64"
Exec   : snappyHexMesh -overwrite
Date   : Jun 26 2020
Time   : 17:49:34
Host   : vipin-workstation
PID    : 9293
I/O    : uncollated
Case   : /home/vipin4948/Openfoam_anlaysis/sphere_in_air_Finemesh_proper_air_value
nProcs : 1
trapFpe: Floating point exception trapping enabled (FOAM_SIGFPE).
fileModificationChecking : Monitoring run-time modified files using timeStampMaster (fileModificationSkew 10)
allowSystemOperations : Allowing user-supplied system call operations

// * * * * * * * * * * * * * * * * * * * * * * * * * * * * * * * * * * * * * //
Create time

Create mesh for time = 0

Read mesh in = 0.2 s

Overall mesh bounding box  : (-0.1 -0.1 -0.1) (0.1 0.1 0.1)
Relative tolerance         : 1e-06
Absolute matching distance : 3.4641e-07

Reading refinement surfaces.
Read refinement surfaces in = 0.02 s

Reading refinement shells.
Refinement level 2 for all cells inside refinementCylinder
Read refinement shells in = 0 s

Setting refinement level of surface to be consistent with shells.
For geometry sphere_OpenFoam.stl detected 0 uncached triangles out of 4450
Checked shell refinement in = 0.05 s

Reading features.
Read extendedFeatureEdgeMesh sphere_OpenFoam.extendedFeatureEdgeMesh
    points      : 4
    edges       : 2
    boundingBox : (9.18485e-19 -4.60467e-19 -0.015) (0.00188 -2.24964e-34 0.015)
    point classification :
        convex feature points          :        0
        concave feature points         :        0
        mixed feature points           :        0
        other (non-feature) points     :        4
    edge classification :
        external (convex angle) edges  :        0
        internal (concave angle) edges :        2
        flat region edges              :        0
        open edges                     :        0
        multiply connected edges       :        0

Refinement level according to distance to "sphere_OpenFoam.extendedFeatureEdgeMesh" (4 points, 2 edges).
    level 2 for all cells within 0 metre.
Read features in = 0.01 s


Determining initial surface intersections
-----------------------------------------

Edge intersection testing:
    Number of edges             : 83700
    Number of edges to retest   : 0
    Number of intersected edges : 0
Edge intersection testing:
    Number of edges             : 83700
    Number of edges to retest   : 83700
    Number of intersected edges : 96
Calculated surface intersections in = 0.09 s

Initial mesh : cells:27000  faces:83700  points:29791
Cells per refinement level:
    0	27000

Adding patches for surface regions
----------------------------------

Patch Type                Region                        
----- ----                ------                        
sphere:

6     wall                sphere                        

Added patches in = 0 s

Edge intersection testing:
    Number of edges             : 83700
    Number of edges to retest   : 0
    Number of intersected edges : 96
Selecting decompositionMethod none [1]

Refinement phase
----------------

Found point (0.005 0.0005 0.0005) in cell 13965 on processor 0
Found point (0.0149 0.0149 0.0149) in cell 15827 on processor 0

Feature refinement iteration 0
------------------------------

Marked for refinement due to explicit features             : 3 cells.
Determined cells to refine in = 0.16 s
Selected for feature refinement : 3 cells (out of 27000)
Edge intersection testing:
    Number of edges             : 83787
    Number of edges to retest   : 180
    Number of intersected edges : 105
Refined mesh in = 0.06 s
After refinement feature refinement iteration 0 : cells:27021  faces:83787  points:29843
Cells per refinement level:
    0	26997
    1	24

Feature refinement iteration 1
------------------------------

Marked for refinement due to explicit features             : 3 cells.
Determined cells to refine in = 0.14 s
Selected for feature refinement : 10 cells (out of 27021)
Edge intersection testing:
    Number of edges             : 84057
    Number of edges to retest   : 510
    Number of intersected edges : 146
Refined mesh in = 0.05 s
After refinement feature refinement iteration 1 : cells:27091  faces:84057  points:29985
Cells per refinement level:
    0	26990
    1	77
    2	24

Feature refinement iteration 2
------------------------------

Marked for refinement due to explicit features             : 1 cells.
Determined cells to refine in = 0.15 s
Selected for feature refinement : 3 cells (out of 27091)
Edge intersection testing:
    Number of edges             : 84132
    Number of edges to retest   : 207
    Number of intersected edges : 156
Refined mesh in = 0.04 s
After refinement feature refinement iteration 2 : cells:27112  faces:84132  points:30019
Cells per refinement level:
    0	26988
    1	92
    2	32

Feature refinement iteration 3
------------------------------

Marked for refinement due to explicit features             : 0 cells.
Determined cells to refine in = 0.15 s
Selected for feature refinement : 0 cells (out of 27112)
Stopping refining since too few cells selected.


Surface refinement iteration 0
------------------------------

Marked for refinement due to surface intersection          : 156 cells.
Determined cells to refine in = 0 s
Selected for refinement : 156 cells (out of 27112)
Edge intersection testing:
    Number of edges             : 87822
    Number of edges to retest   : 5024
    Number of intersected edges : 528
Refined mesh in = 0.05 s
After refinement surface refinement iteration 0 : cells:28204  faces:87822  points:31537
Cells per refinement level:
    0	26872
    1	980
    2	352

Surface refinement iteration 1
------------------------------

Marked for refinement due to surface intersection          : 364 cells.
Determined cells to refine in = 0 s
Selected for refinement : 388 cells (out of 28204)
Edge intersection testing:
    Number of edges             : 96924
    Number of edges to retest   : 13242
    Number of intersected edges : 1536
Refined mesh in = 0.06 s
After refinement surface refinement iteration 1 : cells:30920  faces:96924  points:35197
Cells per refinement level:
    0	26848
    1	808
    2	3264

Surface refinement iteration 2
------------------------------

Marked for refinement due to surface intersection          : 24 cells.
Determined cells to refine in = 0 s
Selected for refinement : 24 cells (out of 30920)
Edge intersection testing:
    Number of edges             : 97428
    Number of edges to retest   : 2520
    Number of intersected edges : 1536
Refined mesh in = 0.06 s
After refinement surface refinement iteration 2 : cells:31088  faces:97428  points:35365
Cells per refinement level:
    0	26848
    1	784
    2	3456

Surface refinement iteration 3
------------------------------

Marked for refinement due to surface intersection          : 0 cells.
Determined cells to refine in = 0 s
Selected for refinement : 0 cells (out of 31088)
Stopping refining since too few cells selected.


Removing mesh beyond surface intersections
------------------------------------------

Setting cellZones according to locationsInMesh:
Location : (0.005 0.0005 0.0005)
    cellZone : sphere
Location : (0.0149 0.0149 0.0149)
    cellZone : air

For cellZone sphere found point (0.005 0.0005 0.0005) in global region 1 out of 2 regions.
For cellZone air found point (0.0149 0.0149 0.0149) in global region 0 out of 2 regions.
Keeping all cells containing inside points
Selected for keeping : 31088 cells.
Edge intersection testing:
    Number of edges             : 97428
    Number of edges to retest   : 0
    Number of intersected edges : 1536
Setting cellZones according to locationsInMesh:
Location : (0.005 0.0005 0.0005)
    cellZone : sphere
Location : (0.0149 0.0149 0.0149)
    cellZone : air

For cellZone sphere found point (0.005 0.0005 0.0005) in global region 1 out of 2 regions.
For cellZone air found point (0.0149 0.0149 0.0149) in global region 0 out of 2 regions.
Keeping all cells containing inside points
Selected for keeping : 31088 cells.
Edge intersection testing:
    Number of edges             : 97428
    Number of edges to retest   : 0
    Number of intersected edges : 1536

Shell refinement iteration 0
----------------------------

Marked for refinement due to distance to explicit features : 0 cells.
Marked for refinement due to refinement shells             : 2432 cells.
Determined cells to refine in = 0.11 s
Selected for internal refinement : 2432 cells (out of 31088)
Edge intersection testing:
    Number of edges             : 149952
    Number of edges to retest   : 72648
    Number of intersected edges : 1536
Refined mesh in = 0.1 s
After refinement shell refinement iteration 0 : cells:48112  faces:149952  points:53889
Cells per refinement level:
    0	25200
    1	13184
    2	9728

Shell refinement iteration 1
----------------------------

Marked for refinement due to distance to explicit features : 0 cells.
Marked for refinement due to refinement shells             : 12704 cells.
Determined cells to refine in = 0.02 s
Selected for internal refinement : 13544 cells (out of 48112)
Edge intersection testing:
    Number of edges             : 439980
    Number of edges to retest   : 349296
    Number of intersected edges : 1536
Refined mesh in = 0.43 s
After refinement shell refinement iteration 1 : cells:142920  faces:439980  points:154373
Cells per refinement level:
    0	24360
    1	7200
    2	111360

Shell refinement iteration 2
----------------------------

Marked for refinement due to distance to explicit features : 0 cells.
Marked for refinement due to refinement shells             : 1440 cells.
Determined cells to refine in = 0.05 s
Selected for internal refinement : 1440 cells (out of 142920)
Edge intersection testing:
    Number of edges             : 471012
    Number of edges to retest   : 67136
    Number of intersected edges : 1536
Refined mesh in = 0.29 s
After refinement shell refinement iteration 2 : cells:153000  faces:471012  points:165249
Cells per refinement level:
    0	24360
    1	5760
    2	122880

Shell refinement iteration 3
----------------------------

Marked for refinement due to distance to explicit features : 0 cells.
Marked for refinement due to refinement shells             : 0 cells.
Determined cells to refine in = 0.04 s
Selected for internal refinement : 480 cells (out of 153000)
Edge intersection testing:
    Number of edges             : 481500
    Number of edges to retest   : 27600
    Number of intersected edges : 1536
Refined mesh in = 0.4 s
After refinement shell refinement iteration 3 : cells:156360  faces:481500  points:169021
Cells per refinement level:
    0	23880
    1	9600
    2	122880

Shell refinement iteration 4
----------------------------

Marked for refinement due to distance to explicit features : 0 cells.
Marked for refinement due to refinement shells             : 0 cells.
Determined cells to refine in = 0.11 s
Selected for internal refinement : 0 cells (out of 156360)
Stopping refining since too few cells selected.


Dangling coarse cells refinement iteration 0
--------------------------------------------

Determined cells to refine in = 0 s
Selected for refinement : 0 cells (out of 156360)
Stopping refining since too few cells selected.


Dangling coarse cells refinement iteration 0
--------------------------------------------

Determined cells to refine in = 0.02 s
Selected for refinement : 0 cells (out of 156360)
Stopping refining since too few cells selected.


Refinement transition refinement iteration 0
--------------------------------------------

Determined cells to refine in = 0 s
Selected for refinement : 0 cells (out of 156360)
Stopping refining since too few cells selected.


Splitting mesh at surface intersections
---------------------------------------

Introducing baffles for 1536 faces that are intersected by the surface.

Setting cellZones according to locationsInMesh:
Location : (0.005 0.0005 0.0005)
    cellZone : sphere
Location : (0.0149 0.0149 0.0149)
    cellZone : air

For cellZone sphere found point (0.005 0.0005 0.0005) in global region 1 out of 2 regions.
For cellZone air found point (0.0149 0.0149 0.0149) in global region 0 out of 2 regions.
Created baffles in = 0.26 s


After introducing baffles : cells:156360  faces:481500  points:169021
Cells per refinement level:
    0	23880
    1	9600
    2	122880

Introducing baffles to block off problem cells
----------------------------------------------

--> FOAM Warning : 
    From function Foam::labelList Foam::meshRefinement::nearestPatch(const labelList&) const
    in file meshRefinement/meshRefinement.C at line 430
    Did not visit some faces, e.g. face 0 at (-0.0933333 -0.0966667 -0.0966667)
Assigning these faces to patch 6
markFacesOnProblemCells : marked 0 additional internal faces to be converted into baffles.
Analyzed problem cells in = 0.38 s


Introducing baffles to delete problem cells.

Created baffles in = 0.06 s


After introducing baffles : cells:156360  faces:481500  points:169021
Cells per refinement level:
    0	23880
    1	9600
    2	122880
Setting cellZones according to locationsInMesh:
Location : (0.005 0.0005 0.0005)
    cellZone : sphere
Location : (0.0149 0.0149 0.0149)
    cellZone : air

For cellZone sphere found point (0.005 0.0005 0.0005) in global region 1 out of 2 regions.
For cellZone air found point (0.0149 0.0149 0.0149) in global region 0 out of 2 regions.

Remove unreachable sections of mesh
-----------------------------------

Split mesh in = 0.14 s


After subsetting : cells:156360  faces:481500  points:169021
Cells per refinement level:
    0	23880
    1	9600
    2	122880

Introducing zones for interfaces
--------------------------------

Setting cellZones according to locationsInMesh:
Location : (0.005 0.0005 0.0005)
    cellZone : sphere
Location : (0.0149 0.0149 0.0149)
    cellZone : air

For cellZone sphere found point (0.005 0.0005 0.0005) in global region 1 out of 2 regions.
For cellZone air found point (0.0149 0.0149 0.0149) in global region 0 out of 2 regions.
Setting faceZones according to neighbouring cellZones:
cellZones : sphere air
    faceZone : sphere_to_air

CellZones:
    sphere	size:3056
    air	size:153304

FaceZones:
    sphere_to_air	size:1536

Edge intersection testing:
    Number of edges             : 481500
    Number of edges to retest   : 0
    Number of intersected edges : 1536

Adding patches for face zones
-----------------------------

Patch Type                Name                          FaceZone                      FaceType  
----- ----                ----                          --------                      --------  
7     wall                sphere_to_air                 sphere_to_air                 internal  
8     wall                air_to_sphere                 sphere_to_air                 internal  


Handling cells with snap problems
---------------------------------

Introducing baffles for 1536 faces that are intersected by the surface.

Setting cellZones according to locationsInMesh:
Location : (0.005 0.0005 0.0005)
    cellZone : sphere
Location : (0.0149 0.0149 0.0149)
    cellZone : air

For cellZone sphere found point (0.005 0.0005 0.0005) in global region 1 out of 2 regions.
For cellZone air found point (0.0149 0.0149 0.0149) in global region 0 out of 2 regions.
Created baffles in = 0.83 s


After introducing baffles : cells:156360  faces:481500  points:169021
Cells per refinement level:
    0	23880
    1	9600
    2	122880

Introducing baffles to block off problem cells
----------------------------------------------

--> FOAM Warning : 
    From function Foam::labelList Foam::meshRefinement::nearestPatch(const labelList&) const
    in file meshRefinement/meshRefinement.C at line 430
    Did not visit some faces, e.g. face 0 at (-0.0933333 -0.0966667 -0.0966667)
Assigning these faces to patch 6
markFacesOnProblemCells : marked 0 additional internal faces to be converted into baffles.
Analyzed problem cells in = 0.37 s


Introducing baffles to delete problem cells.

Created baffles in = 0.07 s


After introducing baffles : cells:156360  faces:481500  points:169021
Cells per refinement level:
    0	23880
    1	9600
    2	122880
Setting cellZones according to locationsInMesh:
Location : (0.005 0.0005 0.0005)
    cellZone : sphere
Location : (0.0149 0.0149 0.0149)
    cellZone : air

For cellZone sphere found point (0.005 0.0005 0.0005) in global region 1 out of 2 regions.
For cellZone air found point (0.0149 0.0149 0.0149) in global region 0 out of 2 regions.

Remove unreachable sections of mesh
-----------------------------------

Split mesh in = 0.14 s


After subsetting : cells:156360  faces:481500  points:169021
Cells per refinement level:
    0	23880
    1	9600
    2	122880

Merge free-standing baffles
---------------------------

freeStandingBaffles : detected 0 free-standing baffles out of 0

Detected free-standing baffles : 0
Merged free-standing baffles in = 0 s


dupNonManifoldPoints : Found : 0 non-manifold points (out of 169021)
Detected unsplittable baffles : 0

Merge refined boundary faces
----------------------------

Merging 0 sets of faces.

No faces merged ...

Merging all points on surface that
- are used by only two boundary faces and
- make an angle with a cosine of more than 0.707107.

No straight edges simplified and no points removed ...
Refined mesh : cells:156360  faces:481500  points:169021
Cells per refinement level:
    0	23880
    1	9600
    2	122880
Writing mesh to time constant
Wrote mesh in = 1.34 s.
Mesh refined in = 6.08 s.

Morphing phase
--------------

Converting zoned faces into baffles ...

FaceZone                      FaceType  nBaffles  
--------                      --------  --------  
sphere_to_air                 internal  1536      

Edge intersection testing:
    Number of edges             : 483036
    Number of edges to retest   : 8088
    Number of intersected edges : 3072
Created 1536 baffles in = 0.39 s


Duplicating 0 points on faceZones of type boundary
Snapping to features in 10 iterations ...
Constructing mesh displacer ...
Using mesh parameters 
{
    maxNonOrtho     65;
    maxBoundarySkewness 20;
    maxInternalSkewness 4;
    maxConcave      80;
    minVol          1e-13;
    minTetQuality   1e-15;
    minArea         -1;
    minTwist        0.02;
    minDeterminant  0.001;
    minFaceWeight   0.05;
    minVolRatio     0.01;
    minTriangleTwist -1;
    nSmoothScale    4;
    errorReduction  0.75;
}


Checking initial mesh ...
Checking faces in error :
    non-orthogonality > 65  degrees                        : 0
    faces with face pyramid volume < 1e-13                 : 0
    faces with face-decomposition tet quality < 1e-15      : 0
    faces with concavity > 80  degrees                     : 0
    faces with skewness > 4   (internal) or 20  (boundary) : 0
    faces with interpolation weights (0..1)  < 0.05        : 0
    faces with volume ratio of neighbour cells < 0.01      : 0
    faces with face twist < 0.02                           : 0
    faces on cells with determinant < 0.001                : 0
Detected 0 illegal faces (concave, zero area or negative cell pyramid volume)
Checked initial mesh in = 0.89 s


Smoothing patch points ...
Smoothing iteration 0
Found 0 non-manifold point(s).

Scaling iteration 0
Moving mesh using displacement scaling : min:1  max:1
Checking faces in error :
    non-orthogonality > 65  degrees                        : 0
    faces with face pyramid volume < 1e-13                 : 0
    faces with face-decomposition tet quality < 1e-15      : 0
    faces with concavity > 80  degrees                     : 0
    faces with skewness > 4   (internal) or 20  (boundary) : 0
    faces with interpolation weights (0..1)  < 0.05        : 0
    faces with volume ratio of neighbour cells < 0.01      : 0
    faces with face twist < 0.02                           : 0
    faces on cells with determinant < 0.001                : 0
Successfully moved mesh

Smoothing iteration 1
Found 0 non-manifold point(s).

Scaling iteration 0
Moving mesh using displacement scaling : min:1  max:1
Checking faces in error :
    non-orthogonality > 65  degrees                        : 0
    faces with face pyramid volume < 1e-13                 : 0
    faces with face-decomposition tet quality < 1e-15      : 0
    faces with concavity > 80  degrees                     : 0
    faces with skewness > 4   (internal) or 20  (boundary) : 0
    faces with interpolation weights (0..1)  < 0.05        : 0
    faces with volume ratio of neighbour cells < 0.01      : 0
    faces with face twist < 0.02                           : 0
    faces on cells with determinant < 0.001                : 0
Successfully moved mesh

Smoothing iteration 2
Found 0 non-manifold point(s).

Scaling iteration 0
Moving mesh using displacement scaling : min:1  max:1
Checking faces in error :
    non-orthogonality > 65  degrees                        : 0
    faces with face pyramid volume < 1e-13                 : 0
    faces with face-decomposition tet quality < 1e-15      : 0
    faces with concavity > 80  degrees                     : 0
    faces with skewness > 4   (internal) or 20  (boundary) : 0
    faces with interpolation weights (0..1)  < 0.05        : 0
    faces with volume ratio of neighbour cells < 0.01      : 0
    faces with face twist < 0.02                           : 0
    faces on cells with determinant < 0.001                : 0
Successfully moved mesh

Patch points smoothed in = 3.09 s



Morph iteration 0
-----------------
Calculating patchDisplacement as distance to nearest surface point ...
    non-zone points : attract to nearest of all non-zone surfaces
    zone points     : attract to zone surface only

Wanted displacement : average:0.000225446 min:1.50558e-07 max:0.000729026
Calculated surface displacement in = 0 s


Detecting near surfaces ...
Overriding nearest with intersection of close gaps at 0 out of 1538 points.
Overriding displacement on features :
   implicit features    : false
   explicit features    : true
   multi-patch features : false

Detected 0 baffle edges out of 3072 edges.
Baffle points     : 0 of which attracted to :
    feature point : 0
    feature edge  : 0
    rest          : 0

Initially selected 0 mesh points out of 1538 for reverse attraction.
Selected 0 mesh points out of 1538 for reverse attraction.
Stringing feature edges : changed 0 points
Attraction:
    linear   : max:(-0.000376356 -0.000439284 0.000443694) avg:(-2.6237e-05 2.05249e-08 2.58964e-08)
    feature  : max:(0 0 0) avg:(0 0 0)
Feature analysis : total master points :1538 of which attracted to :
    feature point   : 0
    feature edge    : 0
    nearest surface : 0
    rest            : 1538

--> FOAM Warning : Displacement (-5.45228e-06 -4.19646e-06 -4.95876e-06) at mesh point 12941 coord (-0.00614645 -0.00614645 -0.0127551) points through the surrounding patch faces
Smoothing displacement ...
Iteration 0
Iteration 10
Iteration 20
Displacement smoothed in = 0.72 s


Moving mesh ...

Iteration 0
Moving mesh using displacement scaling : min:1  max:1
Checking faces in error :
    non-orthogonality > 65  degrees                        : 0
    faces with face pyramid volume < 1e-13                 : 0
    faces with face-decomposition tet quality < 1e-15      : 0
    faces with concavity > 80  degrees                     : 0
    faces with skewness > 4   (internal) or 20  (boundary) : 0
    faces with interpolation weights (0..1)  < 0.05        : 0
    faces with volume ratio of neighbour cells < 0.01      : 0
    faces with face twist < 0.02                           : 0
    faces on cells with determinant < 0.001                : 0
Successfully moved mesh
Moved mesh in = 0.6 s



Morph iteration 1
-----------------
Calculating patchDisplacement as distance to nearest surface point ...
    non-zone points : attract to nearest of all non-zone surfaces
    zone points     : attract to zone surface only

Wanted displacement : average:0.000221153 min:3.98863e-07 max:0.000708579
Calculated surface displacement in = 0 s


Detecting near surfaces ...
Overriding nearest with intersection of close gaps at 0 out of 1538 points.
Overriding displacement on features :
   implicit features    : false
   explicit features    : true
   multi-patch features : false

Detected 0 baffle edges out of 3072 edges.
Baffle points     : 0 of which attracted to :
    feature point : 0
    feature edge  : 0
    rest          : 0

Initially selected 0 mesh points out of 1538 for reverse attraction.
Selected 0 mesh points out of 1538 for reverse attraction.
Stringing feature edges : changed 0 points
Attraction:
    linear   : max:(-0.0003658 0.000426963 -0.00043125) avg:(-2.37567e-05 1.9518e-08 -2.2404e-08)
    feature  : max:(0 0 0) avg:(0 0 0)
Feature analysis : total master points :1538 of which attracted to :
    feature point   : 0
    feature edge    : 0
    nearest surface : 0
    rest            : 1538

--> FOAM Warning : Displacement (-1.19795e-06 -8.1112e-06 -1.21961e-05) at mesh point 12941 coord (-0.0061519 -0.00615065 -0.0127601) points through the surrounding patch faces
Smoothing displacement ...
Iteration 0
Iteration 10
Iteration 20
Displacement smoothed in = 0.54 s


Moving mesh ...

Iteration 0
Moving mesh using displacement scaling : min:1  max:1
Checking faces in error :
    non-orthogonality > 65  degrees                        : 0
    faces with face pyramid volume < 1e-13                 : 0
    faces with face-decomposition tet quality < 1e-15      : 0
    faces with concavity > 80  degrees                     : 0
    faces with skewness > 4   (internal) or 20  (boundary) : 0
    faces with interpolation weights (0..1)  < 0.05        : 0
    faces with volume ratio of neighbour cells < 0.01      : 0
    faces with face twist < 0.02                           : 0
    faces on cells with determinant < 0.001                : 0
Successfully moved mesh
Moved mesh in = 0.96 s



Morph iteration 2
-----------------
Calculating patchDisplacement as distance to nearest surface point ...
    non-zone points : attract to nearest of all non-zone surfaces
    zone points     : attract to zone surface only

Wanted displacement : average:0.000211695 min:9.27148e-07 max:0.000665655
Calculated surface displacement in = 0 s


Detecting near surfaces ...
Overriding nearest with intersection of close gaps at 0 out of 1538 points.
Overriding displacement on features :
   implicit features    : false
   explicit features    : true
   multi-patch features : false

Detected 0 baffle edges out of 3072 edges.
Baffle points     : 0 of which attracted to :
    feature point : 0
    feature edge  : 0
    rest          : 0

Initially selected 0 mesh points out of 1538 for reverse attraction.
Selected 0 mesh points out of 1538 for reverse attraction.
Stringing feature edges : changed 0 points
Attraction:
    linear   : max:(-0.000343641 -0.000401099 0.000405126) avg:(-1.9238e-05 1.19446e-08 -1.09091e-08)
    feature  : max:(0 0 0) avg:(0 0 0)
Feature analysis : total master points :1538 of which attracted to :
    feature point   : 0
    feature edge    : 0
    nearest surface : 0
    rest            : 1538

--> FOAM Warning : Displacement (1.03644e-05 1.5484e-05 6.51187e-06) at mesh point 12941 coord (-0.0061531 -0.00615876 -0.0127723) points through the surrounding patch faces
Smoothing displacement ...
Iteration 0
Iteration 10
Iteration 20
Displacement smoothed in = 0.84 s


Moving mesh ...

Iteration 0
Moving mesh using displacement scaling : min:1  max:1
Checking faces in error :
    non-orthogonality > 65  degrees                        : 0
    faces with face pyramid volume < 1e-13                 : 0
    faces with face-decomposition tet quality < 1e-15      : 0
    faces with concavity > 80  degrees                     : 0
    faces with skewness > 4   (internal) or 20  (boundary) : 0
    faces with interpolation weights (0..1)  < 0.05        : 0
    faces with volume ratio of neighbour cells < 0.01      : 0
    faces with face twist < 0.02                           : 0
    faces on cells with determinant < 0.001                : 0
Successfully moved mesh
Moved mesh in = 0.91 s



Morph iteration 3
-----------------
Calculating patchDisplacement as distance to nearest surface point ...
    non-zone points : attract to nearest of all non-zone surfaces
    zone points     : attract to zone surface only

Wanted displacement : average:0.000197698 min:1.36881e-07 max:0.000610886
Calculated surface displacement in = 0 s


Detecting near surfaces ...
Overriding nearest with intersection of close gaps at 0 out of 1538 points.
Overriding displacement on features :
   implicit features    : false
   explicit features    : true
   multi-patch features : false

Detected 0 baffle edges out of 3072 edges.
Baffle points     : 0 of which attracted to :
    feature point : 0
    feature edge  : 0
    rest          : 0

Initially selected 0 mesh points out of 1538 for reverse attraction.
Selected 0 mesh points out of 1538 for reverse attraction.
Stringing feature edges : changed 0 points
Attraction:
    linear   : max:(-0.000366539 -0.000378006 0.000309745) avg:(-1.37513e-05 8.32836e-08 -4.22377e-08)
    feature  : max:(0 0 0) avg:(0 0 0)
Feature analysis : total master points :1538 of which attracted to :
    feature point   : 0
    feature edge    : 0
    nearest surface : 0
    rest            : 1538

--> FOAM Warning : Displacement (3.75844e-05 5.02047e-06 1.0473e-05) at mesh point 12941 coord (-0.00614274 -0.00614327 -0.0127658) points through the surrounding patch faces
Smoothing displacement ...
Iteration 0
Iteration 10
Iteration 20
Displacement smoothed in = 0.73 s


Moving mesh ...

Iteration 0
Moving mesh using displacement scaling : min:1  max:1
Checking faces in error :
    non-orthogonality > 65  degrees                        : 0
    faces with face pyramid volume < 1e-13                 : 0
    faces with face-decomposition tet quality < 1e-15      : 0
    faces with concavity > 80  degrees                     : 0
    faces with skewness > 4   (internal) or 20  (boundary) : 0
    faces with interpolation weights (0..1)  < 0.05        : 0
    faces with volume ratio of neighbour cells < 0.01      : 0
    faces with face twist < 0.02                           : 0
    faces on cells with determinant < 0.001                : 0
Successfully moved mesh
Moved mesh in = 1.18 s



Morph iteration 4
-----------------
Calculating patchDisplacement as distance to nearest surface point ...
    non-zone points : attract to nearest of all non-zone surfaces
    zone points     : attract to zone surface only

Wanted displacement : average:0.000179265 min:2.20382e-07 max:0.000570406
Calculated surface displacement in = 0 s


Detecting near surfaces ...
Overriding nearest with intersection of close gaps at 0 out of 1538 points.
Overriding displacement on features :
   implicit features    : false
   explicit features    : true
   multi-patch features : false

Detected 0 baffle edges out of 3072 edges.
Baffle points     : 0 of which attracted to :
    feature point : 0
    feature edge  : 0
    rest          : 0

Initially selected 0 mesh points out of 1538 for reverse attraction.
Selected 0 mesh points out of 1538 for reverse attraction.
Stringing feature edges : changed 0 points
Attraction:
    linear   : max:(0.000272752 0.000361182 -0.000347156) avg:(-8.49229e-06 7.66394e-09 -2.16996e-08)
    feature  : max:(0 0 0) avg:(0 0 0)
Feature analysis : total master points :1538 of which attracted to :
    feature point   : 0
    feature edge    : 0
    nearest surface : 0
    rest            : 1538

--> FOAM Warning : Displacement (-1.87205e-05 -1.23004e-05 6.2935e-06) at mesh point 12941 coord (-0.00610515 -0.00613825 -0.0127553) points through the surrounding patch faces
Smoothing displacement ...
Iteration 0
Iteration 10
Iteration 20
Displacement smoothed in = 0.79 s


Moving mesh ...

Iteration 0
Moving mesh using displacement scaling : min:1  max:1
Checking faces in error :
    non-orthogonality > 65  degrees                        : 0
    faces with face pyramid volume < 1e-13                 : 0
    faces with face-decomposition tet quality < 1e-15      : 0
    faces with concavity > 80  degrees                     : 0
    faces with skewness > 4   (internal) or 20  (boundary) : 0
    faces with interpolation weights (0..1)  < 0.05        : 0
    faces with volume ratio of neighbour cells < 0.01      : 0
    faces with face twist < 0.02                           : 0
    faces on cells with determinant < 0.001                : 0
Successfully moved mesh
Moved mesh in = 0.94 s



Morph iteration 5
-----------------
Calculating patchDisplacement as distance to nearest surface point ...
    non-zone points : attract to nearest of all non-zone surfaces
    zone points     : attract to zone surface only

Wanted displacement : average:0.000155941 min:2.00555e-07 max:0.000515597
Calculated surface displacement in = 0 s


Detecting near surfaces ...
Overriding nearest with intersection of close gaps at 0 out of 1538 points.
Overriding displacement on features :
   implicit features    : false
   explicit features    : true
   multi-patch features : false

Detected 0 baffle edges out of 3072 edges.
Baffle points     : 0 of which attracted to :
    feature point : 0
    feature edge  : 0
    rest          : 0

Initially selected 0 mesh points out of 1538 for reverse attraction.
Selected 0 mesh points out of 1538 for reverse attraction.
Stringing feature edges : changed 0 points
Attraction:
    linear   : max:(-0.000266174 -0.00031068 0.000313799) avg:(-4.26331e-06 -1.55898e-08 9.97983e-08)
    feature  : max:(0 0 0) avg:(0 0 0)
Feature analysis : total master points :1538 of which attracted to :
    feature point   : 0
    feature edge    : 0
    nearest surface : 0
    rest            : 1538

--> FOAM Warning : Displacement (6.20659e-05 3.1131e-05 0.000128976) at mesh point 12941 coord (-0.00612387 -0.00615055 -0.012749) points through the surrounding patch faces
Smoothing displacement ...
Iteration 0
Iteration 10
Iteration 20
Displacement smoothed in = 0.69 s


Moving mesh ...

Iteration 0
Moving mesh using displacement scaling : min:1  max:1
Checking faces in error :
    non-orthogonality > 65  degrees                        : 0
    faces with face pyramid volume < 1e-13                 : 0
    faces with face-decomposition tet quality < 1e-15      : 0
    faces with concavity > 80  degrees                     : 0
    faces with skewness > 4   (internal) or 20  (boundary) : 0
    faces with interpolation weights (0..1)  < 0.05        : 0
    faces with volume ratio of neighbour cells < 0.01      : 0
    faces with face twist < 0.02                           : 0
    faces on cells with determinant < 0.001                : 0
Successfully moved mesh
Moved mesh in = 1.19 s



Morph iteration 6
-----------------
Calculating patchDisplacement as distance to nearest surface point ...
    non-zone points : attract to nearest of all non-zone surfaces
    zone points     : attract to zone surface only

Wanted displacement : average:0.000129536 min:2.01376e-08 max:0.000486951
Calculated surface displacement in = 0 s


Detecting near surfaces ...
Overriding nearest with intersection of close gaps at 0 out of 1538 points.
Overriding displacement on features :
   implicit features    : false
   explicit features    : true
   multi-patch features : false

Detected 0 baffle edges out of 3072 edges.
Baffle points     : 0 of which attracted to :
    feature point : 0
    feature edge  : 0
    rest          : 0

Initially selected 0 mesh points out of 1538 for reverse attraction.
Selected 0 mesh points out of 1538 for reverse attraction.
Stringing feature edges : changed 0 points
Attraction:
    linear   : max:(-0.000251386 -0.000293418 0.000296364) avg:(-1.63266e-06 -4.04163e-08 1.80314e-08)
    feature  : max:(0 0 0) avg:(0 0 0)
Feature analysis : total master points :1538 of which attracted to :
    feature point   : 0
    feature edge    : 0
    nearest surface : 0
    rest            : 1538

--> FOAM Warning : Displacement (-1.99922e-06 -3.80373e-05 7.53715e-05) at mesh point 12941 coord (-0.00606181 -0.00611942 -0.01262) points through the surrounding patch faces
Smoothing displacement ...
Iteration 0
Iteration 10
Iteration 20
Displacement smoothed in = 0.54 s


Moving mesh ...

Iteration 0
Moving mesh using displacement scaling : min:1  max:1
Checking faces in error :
    non-orthogonality > 65  degrees                        : 0
    faces with face pyramid volume < 1e-13                 : 0
    faces with face-decomposition tet quality < 1e-15      : 0
    faces with concavity > 80  degrees                     : 0
    faces with skewness > 4   (internal) or 20  (boundary) : 0
    faces with interpolation weights (0..1)  < 0.05        : 0
    faces with volume ratio of neighbour cells < 0.01      : 0
    faces with face twist < 0.02                           : 0
    faces on cells with determinant < 0.001                : 0
Successfully moved mesh
Moved mesh in = 1.13 s



Morph iteration 7
-----------------
Calculating patchDisplacement as distance to nearest surface point ...
    non-zone points : attract to nearest of all non-zone surfaces
    zone points     : attract to zone surface only

Wanted displacement : average:0.000102242 min:5.4439e-09 max:0.000422911
Calculated surface displacement in = 0 s


Detecting near surfaces ...
Overriding nearest with intersection of close gaps at 0 out of 1538 points.
Overriding displacement on features :
   implicit features    : false
   explicit features    : true
   multi-patch features : false

Detected 0 baffle edges out of 3072 edges.
Baffle points     : 0 of which attracted to :
    feature point : 0
    feature edge  : 0
    rest          : 0

Initially selected 0 mesh points out of 1538 for reverse attraction.
Selected 0 mesh points out of 1538 for reverse attraction.
Stringing feature edges : changed 0 points
Attraction:
    linear   : max:(0.000128824 0.000304357 -0.000263864) avg:(-2.58737e-07 1.13745e-07 -8.45467e-08)
    feature  : max:(0 0 0) avg:(0 0 0)
Feature analysis : total master points :1538 of which attracted to :
    feature point   : 0
    feature edge    : 0
    nearest surface : 0
    rest            : 1538

--> FOAM Warning : Displacement (8.22581e-05 7.96599e-05 7.49452e-05) at mesh point 12941 coord (-0.00606381 -0.00615746 -0.0125447) points through the surrounding patch faces
Smoothing displacement ...
Iteration 0
Iteration 10
Iteration 20
Displacement smoothed in = 0.59 s


Moving mesh ...

Iteration 0
Moving mesh using displacement scaling : min:1  max:1
Checking faces in error :
    non-orthogonality > 65  degrees                        : 6
    faces with face pyramid volume < 1e-13                 : 0
    faces with face-decomposition tet quality < 1e-15      : 0
    faces with concavity > 80  degrees                     : 0
    faces with skewness > 4   (internal) or 20  (boundary) : 0
    faces with interpolation weights (0..1)  < 0.05        : 0
    faces with volume ratio of neighbour cells < 0.01      : 0
    faces with face twist < 0.02                           : 0
    faces on cells with determinant < 0.001                : 0

Iteration 1
Moving mesh using displacement scaling : min:0.75  max:1
Checking faces in error :
    non-orthogonality > 65  degrees                        : 1
    faces with face pyramid volume < 1e-13                 : 0
    faces with face-decomposition tet quality < 1e-15      : 0
    faces with concavity > 80  degrees                     : 0
    faces with skewness > 4   (internal) or 20  (boundary) : 0
    faces with interpolation weights (0..1)  < 0.05        : 0
    faces with volume ratio of neighbour cells < 0.01      : 0
    faces with face twist < 0.02                           : 0
    faces on cells with determinant < 0.001                : 0

Iteration 2
Moving mesh using displacement scaling : min:0.5625  max:1
Checking faces in error :
    non-orthogonality > 65  degrees                        : 0
    faces with face pyramid volume < 1e-13                 : 0
    faces with face-decomposition tet quality < 1e-15      : 0
    faces with concavity > 80  degrees                     : 0
    faces with skewness > 4   (internal) or 20  (boundary) : 0
    faces with interpolation weights (0..1)  < 0.05        : 0
    faces with volume ratio of neighbour cells < 0.01      : 0
    faces with face twist < 0.02                           : 0
    faces on cells with determinant < 0.001                : 0
Successfully moved mesh
Moved mesh in = 1.94 s



Morph iteration 8
-----------------
Calculating patchDisplacement as distance to nearest surface point ...
    non-zone points : attract to nearest of all non-zone surfaces
    zone points     : attract to zone surface only

Wanted displacement : average:7.40453e-05 min:1.15131e-07 max:0.000398177
Calculated surface displacement in = 0 s


Detecting near surfaces ...
Overriding nearest with intersection of close gaps at 0 out of 1538 points.
Overriding displacement on features :
   implicit features    : false
   explicit features    : true
   multi-patch features : false

Detected 0 baffle edges out of 3072 edges.
Baffle points     : 0 of which attracted to :
    feature point : 0
    feature edge  : 0
    rest          : 0

Initially selected 0 mesh points out of 1538 for reverse attraction.
Selected 0 mesh points out of 1538 for reverse attraction.
Stringing feature edges : changed 0 points
Attraction:
    linear   : max:(-0.000253573 -0.000238417 -0.000193398) avg:(-1.6005e-07 1.63864e-07 2.60503e-08)
    feature  : max:(0 0 0) avg:(0 0 0)
Feature analysis : total master points :1538 of which attracted to :
    feature point   : 0
    feature edge    : 0
    nearest surface : 0
    rest            : 1538

--> FOAM Warning : Displacement (3.30291e-05 -2.51615e-05 3.30573e-05) at mesh point 12941 coord (-0.00598155 -0.0060778 -0.0124697) points through the surrounding patch faces
Smoothing displacement ...
Iteration 0
Iteration 10
Iteration 20
Displacement smoothed in = 0.89 s


Moving mesh ...

Iteration 0
Moving mesh using displacement scaling : min:1  max:1
Checking faces in error :
    non-orthogonality > 65  degrees                        : 51
    faces with face pyramid volume < 1e-13                 : 0
    faces with face-decomposition tet quality < 1e-15      : 0
    faces with concavity > 80  degrees                     : 0
    faces with skewness > 4   (internal) or 20  (boundary) : 0
    faces with interpolation weights (0..1)  < 0.05        : 0
    faces with volume ratio of neighbour cells < 0.01      : 0
    faces with face twist < 0.02                           : 0
    faces on cells with determinant < 0.001                : 0

Iteration 1
Moving mesh using displacement scaling : min:0.75  max:1
Checking faces in error :
    non-orthogonality > 65  degrees                        : 32
    faces with face pyramid volume < 1e-13                 : 0
    faces with face-decomposition tet quality < 1e-15      : 0
    faces with concavity > 80  degrees                     : 0
    faces with skewness > 4   (internal) or 20  (boundary) : 0
    faces with interpolation weights (0..1)  < 0.05        : 0
    faces with volume ratio of neighbour cells < 0.01      : 0
    faces with face twist < 0.02                           : 0
    faces on cells with determinant < 0.001                : 0

Iteration 2
Moving mesh using displacement scaling : min:0.5625  max:1
Checking faces in error :
    non-orthogonality > 65  degrees                        : 18
    faces with face pyramid volume < 1e-13                 : 0
    faces with face-decomposition tet quality < 1e-15      : 0
    faces with concavity > 80  degrees                     : 0
    faces with skewness > 4   (internal) or 20  (boundary) : 0
    faces with interpolation weights (0..1)  < 0.05        : 0
    faces with volume ratio of neighbour cells < 0.01      : 0
    faces with face twist < 0.02                           : 0
    faces on cells with determinant < 0.001                : 0

Iteration 3
Moving mesh using displacement scaling : min:0.421875  max:1
Checking faces in error :
    non-orthogonality > 65  degrees                        : 14
    faces with face pyramid volume < 1e-13                 : 0
    faces with face-decomposition tet quality < 1e-15      : 0
    faces with concavity > 80  degrees                     : 0
    faces with skewness > 4   (internal) or 20  (boundary) : 0
    faces with interpolation weights (0..1)  < 0.05        : 0
    faces with volume ratio of neighbour cells < 0.01      : 0
    faces with face twist < 0.02                           : 0
    faces on cells with determinant < 0.001                : 0

Iteration 4
Moving mesh using displacement scaling : min:0.316406  max:1
Checking faces in error :
    non-orthogonality > 65  degrees                        : 6
    faces with face pyramid volume < 1e-13                 : 0
    faces with face-decomposition tet quality < 1e-15      : 0
    faces with concavity > 80  degrees                     : 0
    faces with skewness > 4   (internal) or 20  (boundary) : 0
    faces with interpolation weights (0..1)  < 0.05        : 0
    faces with volume ratio of neighbour cells < 0.01      : 0
    faces with face twist < 0.02                           : 0
    faces on cells with determinant < 0.001                : 0

Iteration 5
Displacement scaling for error reduction set to 0.
Moving mesh using displacement scaling : min:0.237305  max:1
Checking faces in error :
    non-orthogonality > 65  degrees                        : 2
    faces with face pyramid volume < 1e-13                 : 0
    faces with face-decomposition tet quality < 1e-15      : 0
    faces with concavity > 80  degrees                     : 0
    faces with skewness > 4   (internal) or 20  (boundary) : 0
    faces with interpolation weights (0..1)  < 0.05        : 0
    faces with volume ratio of neighbour cells < 0.01      : 0
    faces with face twist < 0.02                           : 0
    faces on cells with determinant < 0.001                : 0

Iteration 6
Moving mesh using displacement scaling : min:0  max:1
Checking faces in error :
    non-orthogonality > 65  degrees                        : 0
    faces with face pyramid volume < 1e-13                 : 0
    faces with face-decomposition tet quality < 1e-15      : 0
    faces with concavity > 80  degrees                     : 0
    faces with skewness > 4   (internal) or 20  (boundary) : 0
    faces with interpolation weights (0..1)  < 0.05        : 0
    faces with volume ratio of neighbour cells < 0.01      : 0
    faces with face twist < 0.02                           : 0
    faces on cells with determinant < 0.001                : 0
Successfully moved mesh
Moved mesh in = 3.59 s



Morph iteration 9
-----------------
Calculating patchDisplacement as distance to nearest surface point ...
    non-zone points : attract to nearest of all non-zone surfaces
    zone points     : attract to zone surface only

Wanted displacement : average:5.10052e-05 min:9.17465e-09 max:0.000352914
Calculated surface displacement in = 0.02 s


Detecting near surfaces ...
Overriding nearest with intersection of close gaps at 0 out of 1538 points.
Overriding displacement on features :
   implicit features    : false
   explicit features    : true
   multi-patch features : false

Detected 0 baffle edges out of 3072 edges.
Baffle points     : 0 of which attracted to :
    feature point : 0
    feature edge  : 0
    rest          : 0

Initially selected 0 mesh points out of 1538 for reverse attraction.
Selected 0 mesh points out of 1538 for reverse attraction.
Stringing feature edges : changed 0 points
Attraction:
    linear   : max:(0.000218163 0.000175555 -0.000214788) avg:(5.81802e-08 -3.79326e-09 -1.25433e-07)
    feature  : max:(0 0 0) avg:(0 0 0)
Feature analysis : total master points :1538 of which attracted to :
    feature point   : 0
    feature edge    : 0
    nearest surface : 0
    rest            : 1538

--> FOAM Warning : Displacement (3.17835e-05 3.27779e-05 7.47388e-05) at mesh point 12941 coord (-0.00594852 -0.00610296 -0.0124367) points through the surrounding patch faces
Smoothing displacement ...
Iteration 0
Iteration 10
Iteration 20
Displacement smoothed in = 0.82 s


Moving mesh ...

Iteration 0
Moving mesh using displacement scaling : min:1  max:1
Checking faces in error :
    non-orthogonality > 65  degrees                        : 343
    faces with face pyramid volume < 1e-13                 : 0
    faces with face-decomposition tet quality < 1e-15      : 0
    faces with concavity > 80  degrees                     : 0
    faces with skewness > 4   (internal) or 20  (boundary) : 0
    faces with interpolation weights (0..1)  < 0.05        : 0
    faces with volume ratio of neighbour cells < 0.01      : 0
    faces with face twist < 0.02                           : 0
    faces on cells with determinant < 0.001                : 0

Iteration 1
Moving mesh using displacement scaling : min:0.75  max:1
Checking faces in error :
    non-orthogonality > 65  degrees                        : 244
    faces with face pyramid volume < 1e-13                 : 0
    faces with face-decomposition tet quality < 1e-15      : 0
    faces with concavity > 80  degrees                     : 0
    faces with skewness > 4   (internal) or 20  (boundary) : 0
    faces with interpolation weights (0..1)  < 0.05        : 0
    faces with volume ratio of neighbour cells < 0.01      : 0
    faces with face twist < 0.02                           : 0
    faces on cells with determinant < 0.001                : 0

Iteration 2
Moving mesh using displacement scaling : min:0.5625  max:1
Checking faces in error :
    non-orthogonality > 65  degrees                        : 179
    faces with face pyramid volume < 1e-13                 : 0
    faces with face-decomposition tet quality < 1e-15      : 0
    faces with concavity > 80  degrees                     : 0
    faces with skewness > 4   (internal) or 20  (boundary) : 0
    faces with interpolation weights (0..1)  < 0.05        : 0
    faces with volume ratio of neighbour cells < 0.01      : 0
    faces with face twist < 0.02                           : 0
    faces on cells with determinant < 0.001                : 0

Iteration 3
Moving mesh using displacement scaling : min:0.421875  max:1
Checking faces in error :
    non-orthogonality > 65  degrees                        : 130
    faces with face pyramid volume < 1e-13                 : 0
    faces with face-decomposition tet quality < 1e-15      : 0
    faces with concavity > 80  degrees                     : 0
    faces with skewness > 4   (internal) or 20  (boundary) : 0
    faces with interpolation weights (0..1)  < 0.05        : 0
    faces with volume ratio of neighbour cells < 0.01      : 0
    faces with face twist < 0.02                           : 0
    faces on cells with determinant < 0.001                : 0

Iteration 4
Moving mesh using displacement scaling : min:0.316406  max:1
Checking faces in error :
    non-orthogonality > 65  degrees                        : 102
    faces with face pyramid volume < 1e-13                 : 0
    faces with face-decomposition tet quality < 1e-15      : 0
    faces with concavity > 80  degrees                     : 0
    faces with skewness > 4   (internal) or 20  (boundary) : 0
    faces with interpolation weights (0..1)  < 0.05        : 0
    faces with volume ratio of neighbour cells < 0.01      : 0
    faces with face twist < 0.02                           : 0
    faces on cells with determinant < 0.001                : 0

Iteration 5
Displacement scaling for error reduction set to 0.
Moving mesh using displacement scaling : min:0.237305  max:1
Checking faces in error :
    non-orthogonality > 65  degrees                        : 82
    faces with face pyramid volume < 1e-13                 : 0
    faces with face-decomposition tet quality < 1e-15      : 0
    faces with concavity > 80  degrees                     : 0
    faces with skewness > 4   (internal) or 20  (boundary) : 0
    faces with interpolation weights (0..1)  < 0.05        : 0
    faces with volume ratio of neighbour cells < 0.01      : 0
    faces with face twist < 0.02                           : 0
    faces on cells with determinant < 0.001                : 0

Iteration 6
Moving mesh using displacement scaling : min:0  max:1
Checking faces in error :
    non-orthogonality > 65  degrees                        : 7
    faces with face pyramid volume < 1e-13                 : 0
    faces with face-decomposition tet quality < 1e-15      : 0
    faces with concavity > 80  degrees                     : 0
    faces with skewness > 4   (internal) or 20  (boundary) : 0
    faces with interpolation weights (0..1)  < 0.05        : 0
    faces with volume ratio of neighbour cells < 0.01      : 0
    faces with face twist < 0.02                           : 0
    faces on cells with determinant < 0.001                : 0

Iteration 7
Moving mesh using displacement scaling : min:0  max:1
Checking faces in error :
    non-orthogonality > 65  degrees                        : 7
    faces with face pyramid volume < 1e-13                 : 0
    faces with face-decomposition tet quality < 1e-15      : 0
    faces with concavity > 80  degrees                     : 0
    faces with skewness > 4   (internal) or 20  (boundary) : 0
    faces with interpolation weights (0..1)  < 0.05        : 0
    faces with volume ratio of neighbour cells < 0.01      : 0
    faces with face twist < 0.02                           : 0
    faces on cells with determinant < 0.001                : 0

Iteration 8
Moving mesh using displacement scaling : min:0  max:1
Checking faces in error :
    non-orthogonality > 65  degrees                        : 6
    faces with face pyramid volume < 1e-13                 : 0
    faces with face-decomposition tet quality < 1e-15      : 0
    faces with concavity > 80  degrees                     : 0
    faces with skewness > 4   (internal) or 20  (boundary) : 0
    faces with interpolation weights (0..1)  < 0.05        : 0
    faces with volume ratio of neighbour cells < 0.01      : 0
    faces with face twist < 0.02                           : 0
    faces on cells with determinant < 0.001                : 0

Iteration 9
Moving mesh using displacement scaling : min:0  max:1
Checking faces in error :
    non-orthogonality > 65  degrees                        : 5
    faces with face pyramid volume < 1e-13                 : 0
    faces with face-decomposition tet quality < 1e-15      : 0
    faces with concavity > 80  degrees                     : 0
    faces with skewness > 4   (internal) or 20  (boundary) : 0
    faces with interpolation weights (0..1)  < 0.05        : 0
    faces with volume ratio of neighbour cells < 0.01      : 0
    faces with face twist < 0.02                           : 0
    faces on cells with determinant < 0.001                : 0
Moved mesh in = 5.48 s


--> FOAM Warning : 
    From function void Foam::snappySnapDriver::doSnap(const Foam::dictionary&, const Foam::dictionary&, Foam::meshRefinement::FaceMergeType, Foam::scalar, Foam::scalar, const Foam::snapParameters&)
    in file snappyHexMeshDriver/snappySnapDriver.C at line 2856
    Did not successfully snap mesh. Continuing to snap to resolve easy
    surfaces but the resulting mesh will not satisfy your quality constraints

Edge intersection testing:
    Number of edges             : 481500
    Number of edges to retest   : 1536
    Number of intersected edges : 1536
Repatching faces according to nearest surface ...
Repatched 0 faces in = 0.42 s


Edge intersection testing:
    Number of edges             : 481500
    Number of edges to retest   : 29436
    Number of intersected edges : 1536
Merging 0 sets of faces.

No faces merged ...

Merging all points on surface that
- are used by only two boundary faces and
- make an angle with a cosine of more than 0.866025.

No straight edges simplified and no points removed ...
Snapped mesh : cells:156360  faces:481500  points:169021
Cells per refinement level:
    0	23880
    1	9600
    2	122880
Writing mesh to time constant
Wrote mesh in = 1.65 s.
Mesh snapped in = 31.53 s.
Layer thickness specified as final layer and expansion ratio.
--> FOAM Warning : 
    From function Foam::labelHashSet Foam::polyBoundaryMesh::patchSet(const Foam::UList<Foam::wordRe>&, bool, bool) const
    in file meshes/polyMesh/polyBoundaryMesh/polyBoundaryMesh.C at line 891
    Cannot find any patch or group names matching sphere_to_oil
--> FOAM Warning : 
    From function Foam::layerParameters::layerParameters(const Foam::dictionary&, const Foam::polyBoundaryMesh&, bool)
    in file snappyHexMeshDriver/layerParameters/layerParameters.C at line 284
    Reading "/home/vipin4948/Openfoam_anlaysis/sphere_in_air_Finemesh_proper_air_value/system/snappyHexMeshDict.addLayersControls.layers"
    Layer specification for sphere_to_oil does not match any patch.
Valid patches are 9(maxY minX maxX minY minZ maxZ sphere sphere_to_air air_to_sphere)

Shrinking and layer addition phase
----------------------------------

Using mesh parameters 
{
    maxNonOrtho     65;
    maxBoundarySkewness 20;
    maxInternalSkewness 4;
    maxConcave      80;
    minVol          1e-13;
    minTetQuality   1e-15;
    minArea         -1;
    minTwist        0.02;
    minDeterminant  0.001;
    minFaceWeight   0.05;
    minVolRatio     0.01;
    minTriangleTwist -1;
    nSmoothScale    4;
    errorReduction  0.75;
}



Merging all faces of a cell
---------------------------
    - which are on the same patch
    - which make an angle < 30 degrees (cos:0.866025)
    - as long as the resulting face doesn't become concave by more than 90 degrees
      (0=straight, 180=fully concave)

Merging 0 sets of faces.

No faces merged ...

Merging all points on surface that
- are used by only two boundary faces and
- make an angle with a cosine of more than 0.866025.

No straight edges simplified and no points removed ...

Checking mesh manifoldness ...

Checking initial mesh ...
Checking faces in error :
    non-orthogonality > 65  degrees                        : 5
    faces with face pyramid volume < 1e-13                 : 0
    faces with face-decomposition tet quality < 1e-15      : 0
    faces with concavity > 80  degrees                     : 0
    faces with skewness > 4   (internal) or 20  (boundary) : 0
    faces with interpolation weights (0..1)  < 0.05        : 0
    faces with volume ratio of neighbour cells < 0.01      : 0
    faces with face twist < 0.02                           : 0
    faces on cells with determinant < 0.001                : 0
Detected 5 illegal faces (concave, zero area or negative cell pyramid volume)
Converting zoned faces into baffles ...

FaceZone                      FaceType  nBaffles  
--------                      --------  --------  
sphere_to_air                 internal  1536      

Edge intersection testing:
    Number of edges             : 483036
    Number of edges to retest   : 8088
    Number of intersected edges : 3072
Created 1536 baffles in = 1.34 s


Duplicating 0 points on faceZones of type boundary
On faceZone sphere_to_air adding layers to slave patch air_to_sphere only. Freezing points on master patch sphere_to_air

Handling points with inconsistent layer specification ...
dupNonManifoldPoints : Found : 1538 non-manifold points (out of 169021)
Edge intersection testing:
    Number of edges             : 483036
    Number of edges to retest   : 0
    Number of intersected edges : 3072

Adding in total 0 inter-processor patches to handle extrusion of non-manifold processor boundaries.

Handling points with inconsistent layer specification ...

Handling non-manifold points ...

Checking patch manifoldness ...
Outside of local patch is multiply connected across edges or points at 0 points.
Set displacement to zero for all 0 non-manifold points

Handling feature edges (angle < 30) ...
Set displacement to zero for points on 1 feature edges

Handling cells with warped patch faces ...
Set displacement to zero on 0 warped faces since layer would be > 0.5 of the size of the bounding box.

patch         faces    layers avg thickness[m]
                              near-wall overall
-----         -----    ------ --------- -------
air_to_sphere 1536     10     0.00016   0.00669 

Selecting externalDisplacementMeshMover displacementMedialAxis
displacementMedialAxis : Calculating distance to Medial Axis ...
fieldSmoother : Smoothing normals ...
    Iteration 0   residual 0.0212843
displacementMedialAxis : Limited walk to 170559 steps. Not visited 3879 out of 170559 points
displacementMedialAxis : Inserting all points on patch maxY
displacementMedialAxis : Inserting all points on patch minX
displacementMedialAxis : Inserting all points on patch maxX
displacementMedialAxis : Inserting all points on patch minY
displacementMedialAxis : Inserting all points on patch minZ
displacementMedialAxis : Inserting all points on patch maxZ
displacementMedialAxis : Inserting points on patch sphere if angle to nearest layer patch > 15 degrees.
displacementMedialAxis : Inserting all points on patch sphere_to_air
fieldSmoother : Smoothing normals in interior ...
    Iteration 0   residual 0.0349972

Layer addition iteration 0
--------------------------

Determining displacement for added points according to pointNormal ...
Detected 0 points with point normal pointing through faces.
Reset displacement at 0 points to average of surrounding points.

displacementMedialAxis : Smoothing using Medial Axis ...
displacementMedialAxis : Reducing layer thickness at 0 nodes where thickness to medial axis distance is large 
displacementMedialAxis : Removing isolated regions ...
- if partially extruded faces make angle < 15
- if exclusively surrounded by non-extruded faces
displacementMedialAxis : Number of isolated points extrusion stopped : 8
fieldSmoother : Smoothing field ...
    Iteration 0   residual 5.48131e-06
displacementMedialAxis : Moving mesh ...
displacementMedialAxis : Iteration 0
Moving mesh using displacement scaling : min:1  max:1
Checking faces in error :
    non-orthogonality > 65  degrees                        : 154
    faces with face pyramid volume < 1e-13                 : 8
    faces with face-decomposition tet quality < 1e-15      : 140
    faces with concavity > 80  degrees                     : 0
    faces with skewness > 4   (internal) or 20  (boundary) : 0
    faces with interpolation weights (0..1)  < 0.05        : 1
    faces with volume ratio of neighbour cells < 0.01      : 0
    faces with face twist < 0.02                           : 1
    faces on cells with determinant < 0.001                : 0
displacementMedialAxis : Iteration 1
Moving mesh using displacement scaling : min:0.75  max:1
Checking faces in error :
    non-orthogonality > 65  degrees                        : 64
    faces with face pyramid volume < 1e-13                 : 1
    faces with face-decomposition tet quality < 1e-15      : 116
    faces with concavity > 80  degrees                     : 0
    faces with skewness > 4   (internal) or 20  (boundary) : 0
    faces with interpolation weights (0..1)  < 0.05        : 1
    faces with volume ratio of neighbour cells < 0.01      : 0
    faces with face twist < 0.02                           : 1
    faces on cells with determinant < 0.001                : 0
displacementMedialAxis : Iteration 2
Moving mesh using displacement scaling : min:0.5625  max:1
Checking faces in error :
    non-orthogonality > 65  degrees                        : 25
    faces with face pyramid volume < 1e-13                 : 0
    faces with face-decomposition tet quality < 1e-15      : 82
    faces with concavity > 80  degrees                     : 0
    faces with skewness > 4   (internal) or 20  (boundary) : 0
    faces with interpolation weights (0..1)  < 0.05        : 0
    faces with volume ratio of neighbour cells < 0.01      : 0
    faces with face twist < 0.02                           : 0
    faces on cells with determinant < 0.001                : 0
displacementMedialAxis : Iteration 3
displacementMedialAxis : Displacement scaling for error reduction set to 0.
Moving mesh using displacement scaling : min:0.421875  max:1
Checking faces in error :
    non-orthogonality > 65  degrees                        : 9
    faces with face pyramid volume < 1e-13                 : 0
    faces with face-decomposition tet quality < 1e-15      : 45
    faces with concavity > 80  degrees                     : 0
    faces with skewness > 4   (internal) or 20  (boundary) : 0
    faces with interpolation weights (0..1)  < 0.05        : 0
    faces with volume ratio of neighbour cells < 0.01      : 0
    faces with face twist < 0.02                           : 0
    faces on cells with determinant < 0.001                : 0
displacementMedialAxis : Iteration 4
Moving mesh using displacement scaling : min:0  max:1
Checking faces in error :
    non-orthogonality > 65  degrees                        : 95
    faces with face pyramid volume < 1e-13                 : 21
    faces with face-decomposition tet quality < 1e-15      : 56
    faces with concavity > 80  degrees                     : 0
    faces with skewness > 4   (internal) or 20  (boundary) : 0
    faces with interpolation weights (0..1)  < 0.05        : 0
    faces with volume ratio of neighbour cells < 0.01      : 0
    faces with face twist < 0.02                           : 0
    faces on cells with determinant < 0.001                : 1
displacementMedialAxis : Iteration 5
Moving mesh using displacement scaling : min:0  max:1
Checking faces in error :
    non-orthogonality > 65  degrees                        : 276
    faces with face pyramid volume < 1e-13                 : 40
    faces with face-decomposition tet quality < 1e-15      : 94
    faces with concavity > 80  degrees                     : 0
    faces with skewness > 4   (internal) or 20  (boundary) : 0
    faces with interpolation weights (0..1)  < 0.05        : 0
    faces with volume ratio of neighbour cells < 0.01      : 0
    faces with face twist < 0.02                           : 2
    faces on cells with determinant < 0.001                : 1
displacementMedialAxis : Finished moving mesh ...
truncateDisplacement : Unextruded 0 faces due to non-consecutive vertices being extruded.
truncateDisplacement : Unextruded 0 faces due to stringed edges with inconsistent extrusion.

Setting up information for layer truncation ...
Detected 1536 baffles across faceZones of type internal


Checking mesh with layer ...
Checking faces in error :
    non-orthogonality > 65  degrees                        : 309
    faces with face pyramid volume < 1e-13                 : 15
    faces with face-decomposition tet quality < 1e-15      : 91
    faces with concavity > 80  degrees                     : 0
    faces with skewness > 4   (internal) or 20  (boundary) : 0
    faces with interpolation weights (0..1)  < 0.05        : 0
    faces with volume ratio of neighbour cells < 0.01      : 0
    faces with face twist < 0.02                           : 0
    faces on cells with determinant < 0.001                : 1
Detected 416 illegal faces (concave, zero area or negative cell pyramid volume)
Extruding 1430 out of 1536 faces (93.099%). Removed extrusion at 21 faces.
Added 11369 out of 15360 cells (74.0169%).


Layer addition iteration 1
--------------------------

Determining displacement for added points according to pointNormal ...
Detected 0 points with point normal pointing through faces.
Reset displacement at 0 points to average of surrounding points.

displacementMedialAxis : Smoothing using Medial Axis ...
displacementMedialAxis : Reducing layer thickness at 0 nodes where thickness to medial axis distance is large 
displacementMedialAxis : Removing isolated regions ...
- if partially extruded faces make angle < 15
- if exclusively surrounded by non-extruded faces
displacementMedialAxis : Number of isolated points extrusion stopped : 27
fieldSmoother : Smoothing field ...
    Iteration 0   residual 3.20054e-05
displacementMedialAxis : Moving mesh ...
displacementMedialAxis : Iteration 0
Moving mesh using displacement scaling : min:1  max:1
Checking faces in error :
    non-orthogonality > 65  degrees                        : 1521
    faces with face pyramid volume < 1e-13                 : 124
    faces with face-decomposition tet quality < 1e-15      : 1035
    faces with concavity > 80  degrees                     : 0
    faces with skewness > 4   (internal) or 20  (boundary) : 0
    faces with interpolation weights (0..1)  < 0.05        : 11
    faces with volume ratio of neighbour cells < 0.01      : 0
    faces with face twist < 0.02                           : 3
    faces on cells with determinant < 0.001                : 1
displacementMedialAxis : Iteration 1
Moving mesh using displacement scaling : min:0.75  max:1
Checking faces in error :
    non-orthogonality > 65  degrees                        : 903
    faces with face pyramid volume < 1e-13                 : 64
    faces with face-decomposition tet quality < 1e-15      : 754
    faces with concavity > 80  degrees                     : 0
    faces with skewness > 4   (internal) or 20  (boundary) : 0
    faces with interpolation weights (0..1)  < 0.05        : 16
    faces with volume ratio of neighbour cells < 0.01      : 0
    faces with face twist < 0.02                           : 3
    faces on cells with determinant < 0.001                : 17
displacementMedialAxis : Iteration 2
Moving mesh using displacement scaling : min:0.5625  max:1
Checking faces in error :
    non-orthogonality > 65  degrees                        : 468
    faces with face pyramid volume < 1e-13                 : 34
    faces with face-decomposition tet quality < 1e-15      : 408
    faces with concavity > 80  degrees                     : 0
    faces with skewness > 4   (internal) or 20  (boundary) : 0
    faces with interpolation weights (0..1)  < 0.05        : 6
    faces with volume ratio of neighbour cells < 0.01      : 3
    faces with face twist < 0.02                           : 5
    faces on cells with determinant < 0.001                : 7
displacementMedialAxis : Iteration 3
displacementMedialAxis : Displacement scaling for error reduction set to 0.
Moving mesh using displacement scaling : min:0.421875  max:1
Checking faces in error :
    non-orthogonality > 65  degrees                        : 103
    faces with face pyramid volume < 1e-13                 : 32
    faces with face-decomposition tet quality < 1e-15      : 139
    faces with concavity > 80  degrees                     : 1
    faces with skewness > 4   (internal) or 20  (boundary) : 0
    faces with interpolation weights (0..1)  < 0.05        : 0
    faces with volume ratio of neighbour cells < 0.01      : 1
    faces with face twist < 0.02                           : 3
    faces on cells with determinant < 0.001                : 0
displacementMedialAxis : Iteration 4
Moving mesh using displacement scaling : min:0  max:1
Checking faces in error :
    non-orthogonality > 65  degrees                        : 662
    faces with face pyramid volume < 1e-13                 : 46
    faces with face-decomposition tet quality < 1e-15      : 137
    faces with concavity > 80  degrees                     : 1
    faces with skewness > 4   (internal) or 20  (boundary) : 0
    faces with interpolation weights (0..1)  < 0.05        : 6
    faces with volume ratio of neighbour cells < 0.01      : 0
    faces with face twist < 0.02                           : 3
    faces on cells with determinant < 0.001                : 3
displacementMedialAxis : Iteration 5
Moving mesh using displacement scaling : min:0  max:1
Checking faces in error :
    non-orthogonality > 65  degrees                        : 1338
    faces with face pyramid volume < 1e-13                 : 85
    faces with face-decomposition tet quality < 1e-15      : 199
    faces with concavity > 80  degrees                     : 0
    faces with skewness > 4   (internal) or 20  (boundary) : 0
    faces with interpolation weights (0..1)  < 0.05        : 9
    faces with volume ratio of neighbour cells < 0.01      : 2
    faces with face twist < 0.02                           : 4
    faces on cells with determinant < 0.001                : 31
displacementMedialAxis : Finished moving mesh ...
truncateDisplacement : Unextruded 3 faces due to non-consecutive vertices being extruded.
truncateDisplacement : Unextruded 0 faces due to stringed edges with inconsistent extrusion.
truncateDisplacement : Unextruded 0 faces due to non-consecutive vertices being extruded.
truncateDisplacement : Unextruded 0 faces due to stringed edges with inconsistent extrusion.

Setting up information for layer truncation ...
Detected 1536 baffles across faceZones of type internal


Checking mesh with layer ...
Checking faces in error :
    non-orthogonality > 65  degrees                        : 1403
    faces with face pyramid volume < 1e-13                 : 43
    faces with face-decomposition tet quality < 1e-15      : 196
    faces with concavity > 80  degrees                     : 0
    faces with skewness > 4   (internal) or 20  (boundary) : 0
    faces with interpolation weights (0..1)  < 0.05        : 12
    faces with volume ratio of neighbour cells < 0.01      : 2
    faces with face twist < 0.02                           : 0
    faces on cells with determinant < 0.001                : 31
Detected 1687 illegal faces (concave, zero area or negative cell pyramid volume)
Extruding 1116 out of 1536 faces (72.6562%). Removed extrusion at 58 faces.
Added 7451 out of 15360 cells (48.5091%).


Layer addition iteration 2
--------------------------

Determining displacement for added points according to pointNormal ...
Detected 0 points with point normal pointing through faces.
Reset displacement at 0 points to average of surrounding points.

displacementMedialAxis : Smoothing using Medial Axis ...
displacementMedialAxis : Reducing layer thickness at 0 nodes where thickness to medial axis distance is large 
displacementMedialAxis : Removing isolated regions ...
- if partially extruded faces make angle < 15
- if exclusively surrounded by non-extruded faces
displacementMedialAxis : Number of isolated points extrusion stopped : 49
fieldSmoother : Smoothing field ...
    Iteration 0   residual 4.76193e-05
displacementMedialAxis : Moving mesh ...
displacementMedialAxis : Iteration 0
Moving mesh using displacement scaling : min:1  max:1
Checking faces in error :
    non-orthogonality > 65  degrees                        : 2509
    faces with face pyramid volume < 1e-13                 : 102
    faces with face-decomposition tet quality < 1e-15      : 1907
    faces with concavity > 80  degrees                     : 0
    faces with skewness > 4   (internal) or 20  (boundary) : 0
    faces with interpolation weights (0..1)  < 0.05        : 15
    faces with volume ratio of neighbour cells < 0.01      : 1
    faces with face twist < 0.02                           : 2
    faces on cells with determinant < 0.001                : 2
displacementMedialAxis : Iteration 1
Moving mesh using displacement scaling : min:0.75  max:1
Checking faces in error :
    non-orthogonality > 65  degrees                        : 1156
    faces with face pyramid volume < 1e-13                 : 49
    faces with face-decomposition tet quality < 1e-15      : 1381
    faces with concavity > 80  degrees                     : 1
    faces with skewness > 4   (internal) or 20  (boundary) : 0
    faces with interpolation weights (0..1)  < 0.05        : 3
    faces with volume ratio of neighbour cells < 0.01      : 1
    faces with face twist < 0.02                           : 3
    faces on cells with determinant < 0.001                : 6
displacementMedialAxis : Iteration 2
Moving mesh using displacement scaling : min:0.5625  max:1
Checking faces in error :
    non-orthogonality > 65  degrees                        : 494
    faces with face pyramid volume < 1e-13                 : 39
    faces with face-decomposition tet quality < 1e-15      : 765
    faces with concavity > 80  degrees                     : 1
    faces with skewness > 4   (internal) or 20  (boundary) : 0
    faces with interpolation weights (0..1)  < 0.05        : 3
    faces with volume ratio of neighbour cells < 0.01      : 1
    faces with face twist < 0.02                           : 1
    faces on cells with determinant < 0.001                : 16
displacementMedialAxis : Iteration 3
displacementMedialAxis : Displacement scaling for error reduction set to 0.
Moving mesh using displacement scaling : min:0.421875  max:1
Checking faces in error :
    non-orthogonality > 65  degrees                        : 104
    faces with face pyramid volume < 1e-13                 : 27
    faces with face-decomposition tet quality < 1e-15      : 249
    faces with concavity > 80  degrees                     : 3
    faces with skewness > 4   (internal) or 20  (boundary) : 0
    faces with interpolation weights (0..1)  < 0.05        : 0
    faces with volume ratio of neighbour cells < 0.01      : 0
    faces with face twist < 0.02                           : 6
    faces on cells with determinant < 0.001                : 0
displacementMedialAxis : Iteration 4
Moving mesh using displacement scaling : min:0  max:1
Checking faces in error :
    non-orthogonality > 65  degrees                        : 719
    faces with face pyramid volume < 1e-13                 : 60
    faces with face-decomposition tet quality < 1e-15      : 216
    faces with concavity > 80  degrees                     : 3
    faces with skewness > 4   (internal) or 20  (boundary) : 0
    faces with interpolation weights (0..1)  < 0.05        : 4
    faces with volume ratio of neighbour cells < 0.01      : 3
    faces with face twist < 0.02                           : 2
    faces on cells with determinant < 0.001                : 8
displacementMedialAxis : Iteration 5
Moving mesh using displacement scaling : min:0  max:1
Checking faces in error :
    non-orthogonality > 65  degrees                        : 1226
    faces with face pyramid volume < 1e-13                 : 82
    faces with face-decomposition tet quality < 1e-15      : 306
    faces with concavity > 80  degrees                     : 1
    faces with skewness > 4   (internal) or 20  (boundary) : 0
    faces with interpolation weights (0..1)  < 0.05        : 6
    faces with volume ratio of neighbour cells < 0.01      : 1
    faces with face twist < 0.02                           : 8
    faces on cells with determinant < 0.001                : 17
displacementMedialAxis : Finished moving mesh ...
truncateDisplacement : Unextruded 3 faces due to non-consecutive vertices being extruded.
truncateDisplacement : Unextruded 0 faces due to stringed edges with inconsistent extrusion.
truncateDisplacement : Unextruded 0 faces due to non-consecutive vertices being extruded.
[...]
    non-orthogonality > 65  degrees                        : 3072
    faces with face pyramid volume < 1e-13                 : 131
    faces with face-decomposition tet quality < 1e-15      : 2919
    faces with concavity > 80  degrees                     : 4
    faces with skewness > 4   (internal) or 20  (boundary) : 0
    faces with interpolation weights (0..1)  < 0.05        : 14
    faces with volume ratio of neighbour cells < 0.01      : 0
    faces with face twist < 0.02                           : 2
    faces on cells with determinant < 0.001                : 49
displacementMedialAxis : Iteration 1
Moving mesh using displacement scaling : min:0.75  max:1
Checking faces in error :
    non-orthogonality > 65  degrees                        : 1509
    faces with face pyramid volume < 1e-13                 : 78
    faces with face-decomposition tet quality < 1e-15      : 1975
    faces with concavity > 80  degrees                     : 0
    faces with skewness > 4   (internal) or 20  (boundary) : 0
    faces with interpolation weights (0..1)  < 0.05        : 6
    faces with volume ratio of neighbour cells < 0.01      : 1
    faces with face twist < 0.02                           : 4
    faces on cells with determinant < 0.001                : 17
displacementMedialAxis : Iteration 2
Moving mesh using displacement scaling : min:0.5625  max:1
Checking faces in error :
    non-orthogonality > 65  degrees                        : 617
    faces with face pyramid volume < 1e-13                 : 42
    faces with face-decomposition tet quality < 1e-15      : 997
    faces with concavity > 80  degrees                     : 2
    faces with skewness > 4   (internal) or 20  (boundary) : 0
    faces with interpolation weights (0..1)  < 0.05        : 7
    faces with volume ratio of neighbour cells < 0.01      : 0
    faces with face twist < 0.02                           : 4
    faces on cells with determinant < 0.001                : 18
displacementMedialAxis : Iteration 3
displacementMedialAxis : Displacement scaling for error reduction set to 0.
Moving mesh using displacement scaling : min:0.421875  max:1
Checking faces in error :
    non-orthogonality > 65  degrees                        : 139
    faces with face pyramid volume < 1e-13                 : 34
    faces with face-decomposition tet quality < 1e-15      : 260
    faces with concavity > 80  degrees                     : 2
    faces with skewness > 4   (internal) or 20  (boundary) : 0
    faces with interpolation weights (0..1)  < 0.05        : 1
    faces with volume ratio of neighbour cells < 0.01      : 0
    faces with face twist < 0.02                           : 3
    faces on cells with determinant < 0.001                : 0
displacementMedialAxis : Iteration 4
Moving mesh using displacement scaling : min:0  max:1
Checking faces in error :
    non-orthogonality > 65  degrees                        : 1043
    faces with face pyramid volume < 1e-13                 : 77
    faces with face-decomposition tet quality < 1e-15      : 292
    faces with concavity > 80  degrees                     : 1
    faces with skewness > 4   (internal) or 20  (boundary) : 0
    faces with interpolation weights (0..1)  < 0.05        : 11
    faces with volume ratio of neighbour cells < 0.01      : 6
    faces with face twist < 0.02                           : 4
    faces on cells with determinant < 0.001                : 14
displacementMedialAxis : Iteration 5
Moving mesh using displacement scaling : min:0  max:1
Checking faces in error :
    non-orthogonality > 65  degrees                        : 1926
    faces with face pyramid volume < 1e-13                 : 137
    faces with face-decomposition tet quality < 1e-15      : 378
    faces with concavity > 80  degrees                     : 2
    faces with skewness > 4   (internal) or 20  (boundary) : 0
    faces with interpolation weights (0..1)  < 0.05        : 19
    faces with volume ratio of neighbour cells < 0.01      : 6
    faces with face twist < 0.02                           : 4
    faces on cells with determinant < 0.001                : 34
displacementMedialAxis : Finished moving mesh ...
truncateDisplacement : Unextruded 1 faces due to non-consecutive vertices being extruded.
truncateDisplacement : Unextruded 0 faces due to stringed edges with inconsistent extrusion.
truncateDisplacement : Unextruded 0 faces due to non-consecutive vertices being extruded.
truncateDisplacement : Unextruded 0 faces due to stringed edges with inconsistent extrusion.

Setting up information for layer truncation ...
Detected 1536 baffles across faceZones of type internal


Checking mesh with layer ...
Checking faces in error :
    non-orthogonality > 65  degrees                        : 1987
    faces with face pyramid volume < 1e-13                 : 117
    faces with face-decomposition tet quality < 1e-15      : 382
    faces with concavity > 80  degrees                     : 2
    faces with skewness > 4   (internal) or 20  (boundary) : 0
    faces with interpolation weights (0..1)  < 0.05        : 21
    faces with volume ratio of neighbour cells < 0.01      : 6
    faces with face twist < 0.02                           : 1
    faces on cells with determinant < 0.001                : 34
Detected 2550 illegal faces (concave, zero area or negative cell pyramid volume)
Extruding 198 out of 1536 faces (12.8906%). Removed extrusion at 67 faces.
Added 621 out of 15360 cells (4.04297%).


Layer addition iteration 4
--------------------------

Determining displacement for added points according to pointNormal ...
Detected 0 points with point normal pointing through faces.
Reset displacement at 0 points to average of surrounding points.

displacementMedialAxis : Smoothing using Medial Axis ...
displacementMedialAxis : Reducing layer thickness at 0 nodes where thickness to medial axis distance is large 
displacementMedialAxis : Removing isolated regions ...
- if partially extruded faces make angle < 15
- if exclusively surrounded by non-extruded faces
displacementMedialAxis : Number of isolated points extrusion stopped : 19
fieldSmoother : Smoothing field ...
    Iteration 0   residual 3.62362e-05
displacementMedialAxis : Moving mesh ...
displacementMedialAxis : Iteration 0
Moving mesh using displacement scaling : min:1  max:1
Checking faces in error :
    non-orthogonality > 65  degrees                        : 1334
    faces with face pyramid volume < 1e-13                 : 38
    faces with face-decomposition tet quality < 1e-15      : 544
    faces with concavity > 80  degrees                     : 0
    faces with skewness > 4   (internal) or 20  (boundary) : 0
    faces with interpolation weights (0..1)  < 0.05        : 5
    faces with volume ratio of neighbour cells < 0.01      : 0
    faces with face twist < 0.02                           : 0
    faces on cells with determinant < 0.001                : 8
displacementMedialAxis : Iteration 1
Moving mesh using displacement scaling : min:0.75  max:1
Checking faces in error :
    non-orthogonality > 65  degrees                        : 609
    faces with face pyramid volume < 1e-13                 : 23
    faces with face-decomposition tet quality < 1e-15      : 381
    faces with concavity > 80  degrees                     : 1
    faces with skewness > 4   (internal) or 20  (boundary) : 0
    faces with interpolation weights (0..1)  < 0.05        : 1
    faces with volume ratio of neighbour cells < 0.01      : 0
    faces with face twist < 0.02                           : 0
    faces on cells with determinant < 0.001                : 17
displacementMedialAxis : Iteration 2
Moving mesh using displacement scaling : min:0.5625  max:1
Checking faces in error :
    non-orthogonality > 65  degrees                        : 168
    faces with face pyramid volume < 1e-13                 : 16
    faces with face-decomposition tet quality < 1e-15      : 227
    faces with concavity > 80  degrees                     : 0
    faces with skewness > 4   (internal) or 20  (boundary) : 0
    faces with interpolation weights (0..1)  < 0.05        : 0
    faces with volume ratio of neighbour cells < 0.01      : 0
    faces with face twist < 0.02                           : 2
    faces on cells with determinant < 0.001                : 4
displacementMedialAxis : Iteration 3
displacementMedialAxis : Displacement scaling for error reduction set to 0.
Moving mesh using displacement scaling : min:0.421875  max:1
Checking faces in error :
    non-orthogonality > 65  degrees                        : 39
    faces with face pyramid volume < 1e-13                 : 8
    faces with face-decomposition tet quality < 1e-15      : 69
    faces with concavity > 80  degrees                     : 0
    faces with skewness > 4   (internal) or 20  (boundary) : 0
    faces with interpolation weights (0..1)  < 0.05        : 0
    faces with volume ratio of neighbour cells < 0.01      : 0
    faces with face twist < 0.02                           : 1
    faces on cells with determinant < 0.001                : 0
displacementMedialAxis : Iteration 4
Moving mesh using displacement scaling : min:0  max:1
Checking faces in error :
    non-orthogonality > 65  degrees                        : 170
    faces with face pyramid volume < 1e-13                 : 5
    faces with face-decomposition tet quality < 1e-15      : 59
    faces with concavity > 80  degrees                     : 1
    faces with skewness > 4   (internal) or 20  (boundary) : 0
    faces with interpolation weights (0..1)  < 0.05        : 3
    faces with volume ratio of neighbour cells < 0.01      : 0
    faces with face twist < 0.02                           : 0
    faces on cells with determinant < 0.001                : 0
displacementMedialAxis : Iteration 5
Moving mesh using displacement scaling : min:0  max:1
Checking faces in error :
    non-orthogonality > 65  degrees                        : 358
    faces with face pyramid volume < 1e-13                 : 18
    faces with face-decomposition tet quality < 1e-15      : 94
    faces with concavity > 80  degrees                     : 1
    faces with skewness > 4   (internal) or 20  (boundary) : 0
    faces with interpolation weights (0..1)  < 0.05        : 2
    faces with volume ratio of neighbour cells < 0.01      : 1
    faces with face twist < 0.02                           : 0
    faces on cells with determinant < 0.001                : 1
displacementMedialAxis : Finished moving mesh ...
truncateDisplacement : Unextruded 0 faces due to non-consecutive vertices being extruded.
truncateDisplacement : Unextruded 0 faces due to stringed edges with inconsistent extrusion.

Setting up information for layer truncation ...
Detected 1536 baffles across faceZones of type internal


Checking mesh with layer ...
Checking faces in error :
    non-orthogonality > 65  degrees                        : 363
    faces with face pyramid volume < 1e-13                 : 18
    faces with face-decomposition tet quality < 1e-15      : 97
    faces with concavity > 80  degrees                     : 1
    faces with skewness > 4   (internal) or 20  (boundary) : 0
    faces with interpolation weights (0..1)  < 0.05        : 4
    faces with volume ratio of neighbour cells < 0.01      : 1
    faces with face twist < 0.02                           : 0
    faces on cells with determinant < 0.001                : 1
Detected 485 illegal faces (concave, zero area or negative cell pyramid volume)
Extruding 71 out of 1536 faces (4.6224%). Removed extrusion at 4 faces.
Added 85 out of 15360 cells (0.553385%).


Layer addition iteration 5
--------------------------

Determining displacement for added points according to pointNormal ...
Detected 0 points with point normal pointing through faces.
Reset displacement at 0 points to average of surrounding points.

displacementMedialAxis : Smoothing using Medial Axis ...
displacementMedialAxis : Reducing layer thickness at 0 nodes where thickness to medial axis distance is large 
displacementMedialAxis : Removing isolated regions ...
- if partially extruded faces make angle < 15
- if exclusively surrounded by non-extruded faces
displacementMedialAxis : Number of isolated points extrusion stopped : 24
fieldSmoother : Smoothing field ...
    Iteration 0   residual 7.92582e-06
displacementMedialAxis : Moving mesh ...
displacementMedialAxis : Iteration 0
Moving mesh using displacement scaling : min:1  max:1
Checking faces in error :
    non-orthogonality > 65  degrees                        : 95
    faces with face pyramid volume < 1e-13                 : 0
    faces with face-decomposition tet quality < 1e-15      : 47
    faces with concavity > 80  degrees                     : 0
    faces with skewness > 4   (internal) or 20  (boundary) : 0
    faces with interpolation weights (0..1)  < 0.05        : 0
    faces with volume ratio of neighbour cells < 0.01      : 0
    faces with face twist < 0.02                           : 0
    faces on cells with determinant < 0.001                : 0
displacementMedialAxis : Iteration 1
Moving mesh using displacement scaling : min:0.75  max:1
Checking faces in error :
    non-orthogonality > 65  degrees                        : 37
    faces with face pyramid volume < 1e-13                 : 0
    faces with face-decomposition tet quality < 1e-15      : 19
    faces with concavity > 80  degrees                     : 0
    faces with skewness > 4   (internal) or 20  (boundary) : 0
    faces with interpolation weights (0..1)  < 0.05        : 0
    faces with volume ratio of neighbour cells < 0.01      : 0
    faces with face twist < 0.02                           : 0
    faces on cells with determinant < 0.001                : 0
displacementMedialAxis : Iteration 2
Moving mesh using displacement scaling : min:0.5625  max:1
Checking faces in error :
    non-orthogonality > 65  degrees                        : 1
    faces with face pyramid volume < 1e-13                 : 0
    faces with face-decomposition tet quality < 1e-15      : 0
    faces with concavity > 80  degrees                     : 0
    faces with skewness > 4   (internal) or 20  (boundary) : 0
    faces with interpolation weights (0..1)  < 0.05        : 0
    faces with volume ratio of neighbour cells < 0.01      : 0
    faces with face twist < 0.02                           : 0
    faces on cells with determinant < 0.001                : 0
displacementMedialAxis : Successfully moved mesh
displacementMedialAxis : Finished moving mesh ...
truncateDisplacement : Unextruded 0 faces due to non-consecutive vertices being extruded.
truncateDisplacement : Unextruded 0 faces due to stringed edges with inconsistent extrusion.

Setting up information for layer truncation ...
Detected 1536 baffles across faceZones of type internal


Checking mesh with layer ...
Checking faces in error :
    non-orthogonality > 65  degrees                        : 6
    faces with face pyramid volume < 1e-13                 : 0
    faces with face-decomposition tet quality < 1e-15      : 3
    faces with concavity > 80  degrees                     : 0
    faces with skewness > 4   (internal) or 20  (boundary) : 0
    faces with interpolation weights (0..1)  < 0.05        : 0
    faces with volume ratio of neighbour cells < 0.01      : 0
    faces with face twist < 0.02                           : 0
    faces on cells with determinant < 0.001                : 0
Detected 9 illegal faces (concave, zero area or negative cell pyramid volume)
Extruding 17 out of 1536 faces (1.10677%). Removed extrusion at 3 faces.
Added 24 out of 15360 cells (0.15625%).


Layer addition iteration 6
--------------------------

Determining displacement for added points according to pointNormal ...
Detected 0 points with point normal pointing through faces.
Reset displacement at 0 points to average of surrounding points.

displacementMedialAxis : Smoothing using Medial Axis ...
displacementMedialAxis : Reducing layer thickness at 0 nodes where thickness to medial axis distance is large 
displacementMedialAxis : Removing isolated regions ...
- if partially extruded faces make angle < 15
- if exclusively surrounded by non-extruded faces
displacementMedialAxis : Number of isolated points extrusion stopped : 8
fieldSmoother : Smoothing field ...
    Iteration 0   residual 0
displacementMedialAxis : Moving mesh ...
displacementMedialAxis : Iteration 0
Moving mesh using displacement scaling : min:1  max:1
Checking faces in error :
    non-orthogonality > 65  degrees                        : 0
    faces with face pyramid volume < 1e-13                 : 0
    faces with face-decomposition tet quality < 1e-15      : 0
    faces with concavity > 80  degrees                     : 0
    faces with skewness > 4   (internal) or 20  (boundary) : 0
    faces with interpolation weights (0..1)  < 0.05        : 0
    faces with volume ratio of neighbour cells < 0.01      : 0
    faces with face twist < 0.02                           : 0
    faces on cells with determinant < 0.001                : 0
displacementMedialAxis : Successfully moved mesh
displacementMedialAxis : Finished moving mesh ...
truncateDisplacement : Unextruded 0 faces due to non-consecutive vertices being extruded.
truncateDisplacement : Unextruded 0 faces due to stringed edges with inconsistent extrusion.

Setting up information for layer truncation ...
Detected 1536 baffles across faceZones of type internal


Checking mesh with layer ...
Checking faces in error :
    non-orthogonality > 65  degrees                        : 5
    faces with face pyramid volume < 1e-13                 : 0
    faces with face-decomposition tet quality < 1e-15      : 0
    faces with concavity > 80  degrees                     : 0
    faces with skewness > 4   (internal) or 20  (boundary) : 0
    faces with interpolation weights (0..1)  < 0.05        : 0
    faces with volume ratio of neighbour cells < 0.01      : 0
    faces with face twist < 0.02                           : 0
    faces on cells with determinant < 0.001                : 0
Detected 5 illegal faces (concave, zero area or negative cell pyramid volume)
Extruding 0 out of 1536 faces (0%). Removed extrusion at 0 faces.
Added 0 out of 15360 cells (0%).
Edge intersection testing:
    Number of edges             : 483036
    Number of edges to retest   : 0
    Number of intersected edges : 3072

patch         faces    layers   overall thickness
                                [m]       [%]
-----         -----    ------   ---       ---
air_to_sphere 1536     0        0         0       

Merging 3076 duplicated points ...
Edge intersection testing:
    Number of edges             : 483036
    Number of edges to retest   : 0
    Number of intersected edges : 3072
Merged points in = 41.35 s


Converting baffles back into zoned faces ...
Edge intersection testing:
    Number of edges             : 481500
    Number of edges to retest   : 1536
    Number of intersected edges : 1536
Converted baffles in = 0.37 s


Layer mesh : cells:156360  faces:481500  points:169021
Cells per refinement level:
    0	23880
    1	9600
    2	122880
Writing mesh to time constant
Wrote mesh in = 1.17 s.
Layers added in = 44.23 s.
Checking final mesh ...
Checking faces in error :
    non-orthogonality > 65  degrees                        : 5
    faces with face pyramid volume < 1e-13                 : 0
    faces with face-decomposition tet quality < 1e-15      : 0
    faces with concavity > 80  degrees                     : 0
    faces with skewness > 4   (internal) or 20  (boundary) : 0
    faces with interpolation weights (0..1)  < 0.05        : 0
    faces with volume ratio of neighbour cells < 0.01      : 0
    faces with face twist < 0.02                           : 0
    faces on cells with determinant < 0.001                : 0
Finished meshing with 5 illegal faces (concave, zero area or negative cell pyramid volume)
Finished meshing in = 83.2 s.
End

